%nprocshared=3
%mem=6GB
%Chk=QHJABUZHRJTCAR-UHFFFAOYSA-N_conf_1_0.chk
# opt=CalcFc B3LYP/6-31G** SCRF=(Solvent=water) scf=xqc 

QHJABUZHRJTCAR-UHFFFAOYSA-N_conf_1

0 1
N -3.1310917048088713 0.2613393361428972 0.5206811125665369
C -1.9185936803224053 -0.43553482398604276 0.10503346489299546
C -0.6930126472879193 0.4560973287924046 0.30005126482311884
C 0.5777378247379992 -0.25507116792734064 -0.17150969201191535
N 1.7433493895152745 0.5992328639464901 0.06089147155235846
C 2.9637600037459872 -0.036250668780762885 -0.41664471795991115
H -3.926027663447023 -0.373422722432669 0.4584223883947312
H -3.054377634502377 0.527356467893784 1.502110074390898
H -1.812194597094478 -1.3563834389906886 0.689060564026986
H -2.0159990894457525 -0.7183887803282728 -0.948589570248145
H -0.8225375351125175 1.3917229776324227 -0.2596297222273366
H -0.5960329122140348 0.7243513283367162 1.3602678837077897
H 0.6930249982756181 -1.1969667469578047 0.37793437176408606
H 0.48763796491386935 -0.49267797429485216 -1.2384538858733896
H 1.6150684503140278 1.4890897791481958 -0.4213231677785977
H 3.8173646996294672 0.6196127511215418 -0.21944503240408014
H 3.1477590408900995 -0.9815649873952428 0.10402924575888362
H 2.9241650922130455 -0.22254152192085047 -1.4948089999212024


--Link1--
%nprocshared=3
%mem=6GB
%Oldchk=QHJABUZHRJTCAR-UHFFFAOYSA-N_conf_1_0.chk
%Chk=QHJABUZHRJTCAR-UHFFFAOYSA-N_conf_1_1.chk
# freq B3LYP/6-31G** SCRF=(Solvent=water) volume NMR pop=NPA density=current Geom=AllCheck Guess=Read


--Link1--
%nprocshared=3
%mem=6GB
%Oldchk=QHJABUZHRJTCAR-UHFFFAOYSA-N_conf_1_1.chk
%Chk=QHJABUZHRJTCAR-UHFFFAOYSA-N_conf_1_2.chk
# TD(NStates=10, Root=1) B3LYP/6-31G** SCRF=(Solvent=water) volume pop=NPA density=current Geom=AllCheck Guess=Read



