%nprocshared=3
%mem=6GB
%Chk=QHJABUZHRJTCAR-UHFFFAOYSA-N_conf_0_0.chk
# opt=CalcFc B3LYP/6-31G** SCRF=(Solvent=water) scf=xqc 

QHJABUZHRJTCAR-UHFFFAOYSA-N_conf_0

0 1
N -2.5281425097109675 0.8036301688438668 1.0415482151605995
C -1.6210174743385681 0.03902697860390649 0.18481252584211755
C -0.2738346271274616 -0.18375158270631092 0.8733897796998373
C 0.6793808934994183 -1.0545894787875065 0.04583511987078598
N 1.0022930167414255 -0.526181774208553 -1.2808003093881246
C 1.8320464859045624 0.6707741668465197 -1.2224263089119793
H -2.6381576912473297 0.32661756876606546 1.9349497638274147
H -2.108018917810962 1.70782681438507 1.2528501255870783
H -2.088984797357041 -0.9224955126983055 -0.05220804784951087
H -1.4917930852723083 0.5822705628214225 -0.7568851911206922
H -0.4375936377408067 -0.6850468134625994 1.8363735365759286
H 0.1952507193881289 0.7798369511487391 1.1057232345718109
H 0.21161393791242014 -2.0370473250004126 -0.09252716911371779
H 1.6003768300149037 -1.2334118663135742 0.6142353076494683
H 1.5058373337398352 -1.2431554955049653 -1.8045053650767966
H 2.1002523574645027 0.9729942454581426 -2.23983965353113
H 2.7609395744942433 0.4910546616594767 -0.6716705876994983
H 1.2995515914458533 1.5116477301490239 -0.7688549760935929


--Link1--
%nprocshared=3
%mem=6GB
%Oldchk=QHJABUZHRJTCAR-UHFFFAOYSA-N_conf_0_0.chk
%Chk=QHJABUZHRJTCAR-UHFFFAOYSA-N_conf_0_1.chk
# freq B3LYP/6-31G** SCRF=(Solvent=water) volume NMR pop=NPA density=current Geom=AllCheck Guess=Read


--Link1--
%nprocshared=3
%mem=6GB
%Oldchk=QHJABUZHRJTCAR-UHFFFAOYSA-N_conf_0_1.chk
%Chk=QHJABUZHRJTCAR-UHFFFAOYSA-N_conf_0_2.chk
# TD(NStates=10, Root=1) B3LYP/6-31G** SCRF=(Solvent=water) volume pop=NPA density=current Geom=AllCheck Guess=Read



