%nprocshared=4
%mem=8GB
%Chk=IWBOPFCKHIJFMS-UHFFFAOYSA-N_conf_4_0.chk
# opt=CalcFc B3LYP/6-31G** SCRF=(Solvent=water) scf=xqc 

IWBOPFCKHIJFMS-UHFFFAOYSA-N_conf_4

0 1
N 4.303009497873342 1.1690066577130576 2.2238927195390596
C 3.703968589417367 0.06567322116484334 1.474050454367074
C 2.4754850457395166 0.48594320315503153 0.6576980626605687
O 1.974286408073618 -0.6533425104369412 -0.042193949915640676
C 0.8230986575760196 -0.358941533721074 -0.833403339929586
C -0.4639855659592531 -0.43827542828593485 -0.01448186070930062
O -1.578128941463308 -0.14773537593874334 -0.8581002998051861
C -2.816770997067342 -0.24413240458641638 -0.1463752219289402
C -3.970993216173344 0.10338294984950253 -1.0949029845747025
N -4.00371396972764 -0.7745964680134174 -2.270577727410439
H 3.611060545431415 1.5787785845454652 2.8492202388850756
H 4.586586597472349 1.9081596157027705 1.581849168677125
H 3.424294666851359 -0.7321588836804063 2.1711006934138046
H 4.457163416135579 -0.3693295398513313 0.8072671897408583
H 2.75463258773223 1.2624132782038258 -0.06472539922926354
H 1.7039607899770084 0.8837626582781917 1.3259253120265346
H 0.7777927301081973 -1.1049474590062023 -1.635081800798037
H 0.9212833000810431 0.6144640705361077 -1.3295541737254903
H -0.5660924178567369 -1.4418292110151283 0.41508647597196924
H -0.4364535775058533 0.27698913691171556 0.8147165826885522
H -2.938249210369758 -1.2623156810177785 0.24143726818300112
H -2.8115932456148047 0.45920659542438486 0.6939936212755774
H -3.8562259219691812 1.1334715793767964 -1.4498455756988515
H -4.9257618813791115 0.03428165687596793 -0.5639416743168576
H -4.06345650902571 -1.7440709766593803 -1.9613007767297936
H -3.0851973783553115 -0.7038577355224845 -2.7172157985673664


--Link1--
%nprocshared=4
%mem=8GB
%Oldchk=IWBOPFCKHIJFMS-UHFFFAOYSA-N_conf_4_0.chk
%Chk=IWBOPFCKHIJFMS-UHFFFAOYSA-N_conf_4_1.chk
# freq B3LYP/6-31G** SCRF=(Solvent=water) volume NMR pop=NPA density=current Geom=AllCheck Guess=Read


--Link1--
%nprocshared=4
%mem=8GB
%Oldchk=IWBOPFCKHIJFMS-UHFFFAOYSA-N_conf_4_1.chk
%Chk=IWBOPFCKHIJFMS-UHFFFAOYSA-N_conf_4_2.chk
# TD(NStates=10, Root=1) B3LYP/6-31G** SCRF=(Solvent=water) volume pop=NPA density=current Geom=AllCheck Guess=Read



