%nprocshared=4
%mem=8GB
%Chk=IWBOPFCKHIJFMS-UHFFFAOYSA-N_conf_2_0.chk
# opt=CalcFc B3LYP/6-31G** SCRF=(Solvent=water) scf=xqc 

IWBOPFCKHIJFMS-UHFFFAOYSA-N_conf_2

0 1
N 4.347717932543493 0.8320432123275009 -0.7075246907188234
C 3.617397773071999 -0.42804609475334826 -0.5233259216713586
C 2.428942543756707 -0.27328730765603043 0.435990760211064
O 1.5549517193902491 0.7406886564749637 -0.0641159774446776
C 0.449569556260369 1.0260487265179485 0.7985341918046309
C -0.6500854652967551 -0.040747795984353276 0.757528212424201
O -1.2467580845072928 -0.06471979082186398 -0.541086146613556
C -2.2628839800152036 -1.0646408947782542 -0.6822144873292525
C -3.6161550194419387 -0.5756337859520241 -0.14413356384256068
N -4.082117920772477 0.6056164533793172 -0.8728096959802746
H 3.662746316977824 1.5159097149559386 -1.044843799348822
H 4.6343758553248895 1.1890184746248373 0.2025736206200265
H 4.3035409712751065 -1.193169980742173 -0.1468466511310688
H 3.256111895907549 -0.7526424854507706 -1.5051402176306174
H 1.8994364029339608 -1.2284396401168567 0.5022200665060561
H 2.7860003305196592 0.0069844676811952455 1.4338246261251926
H 0.8106264571464101 1.170726154744372 1.8229630719000047
H 0.03301852012831727 1.9788580501535817 0.454393389611137
H -1.4112909686205324 0.2087989463719549 1.5032732075363862
H -0.24250325279984786 -1.030332888960479 0.9840151586319895
H -1.9584105692925784 -1.9927176813507859 -0.18477204996223845
H -2.3515411602884404 -1.2845098096305838 -1.7521112912900179
H -3.528000810968511 -0.31699223251585906 0.9154570284719054
H -4.362411143254971 -1.3707288113952683 -0.23683529413906795
H -3.2901612777935956 1.243211873876334 -0.9865229856018711
H -4.782116622184789 1.0987044690007681 -0.32279321211186685


--Link1--
%nprocshared=4
%mem=8GB
%Oldchk=IWBOPFCKHIJFMS-UHFFFAOYSA-N_conf_2_0.chk
%Chk=IWBOPFCKHIJFMS-UHFFFAOYSA-N_conf_2_1.chk
# freq B3LYP/6-31G** SCRF=(Solvent=water) volume NMR pop=NPA density=current Geom=AllCheck Guess=Read


--Link1--
%nprocshared=4
%mem=8GB
%Oldchk=IWBOPFCKHIJFMS-UHFFFAOYSA-N_conf_2_1.chk
%Chk=IWBOPFCKHIJFMS-UHFFFAOYSA-N_conf_2_2.chk
# TD(NStates=10, Root=1) B3LYP/6-31G** SCRF=(Solvent=water) volume pop=NPA density=current Geom=AllCheck Guess=Read



