%nprocshared=4
%mem=8GB
%Chk=IWBOPFCKHIJFMS-UHFFFAOYSA-N_conf_1_0.chk
# opt=CalcFc B3LYP/6-31G** SCRF=(Solvent=water) scf=xqc 

IWBOPFCKHIJFMS-UHFFFAOYSA-N_conf_1

0 1
N -3.1536520116184024 0.9225954822857637 -1.6107463868753378
C -3.10329279544237 -0.5339813402049767 -1.4446126456648214
C -2.9679949863032817 -0.9393697053962806 0.03130669682703479
O -1.8642376547306716 -0.28779021489233264 0.6710555993056041
C -0.6029447509750433 -0.8720209611637775 0.34581202622769197
C 0.4935277732414208 -0.1803690966707651 1.1553305480297456
O 1.7792529382530815 -0.7269453959844436 0.8603463339915562
C 2.430563100009352 -0.10613056525423088 -0.25417021514415244
C 3.1590535349617364 1.1800973923352662 0.16725240283658974
N 4.084255550211442 0.9463361346647807 1.2814071880864855
H -3.9914950025230453 1.2781255138458072 -1.1491391812205651
H -2.383284206950981 1.3184653085237845 -1.0650757248160299
H -2.2512401020830537 -0.9093814583541084 -2.019442799466778
H -4.006717772399244 -0.9809954815813432 -1.871935551318916
H -2.8799825924335836 -2.027151537223189 0.13256223907040612
H -3.8705381628681366 -0.6348438725575086 0.5730083656075731
H -0.6092729259888549 -1.943305441125151 0.579317666773274
H -0.4025430986523302 -0.7655780864442311 -0.7245294052575006
H 0.46842469381860125 0.9051428469982509 1.0073980561201683
H 0.3034471048127817 -0.34611801568335415 2.2218509799975905
H 1.720138254844909 0.09631095019353257 -1.062915621531194
H 3.1621530538171343 -0.8273124406450726 -0.6353547536620632
H 3.711271105939496 1.5903953207966464 -0.6842668955316011
H 2.4360377549671393 1.9370668416361818 0.48618996363008404
H 3.555429958568904 0.46691937680473894 2.016118611006956
H 4.783641239522945 0.2619668507252901 0.9932325029780229


--Link1--
%nprocshared=4
%mem=8GB
%Oldchk=IWBOPFCKHIJFMS-UHFFFAOYSA-N_conf_1_0.chk
%Chk=IWBOPFCKHIJFMS-UHFFFAOYSA-N_conf_1_1.chk
# freq B3LYP/6-31G** SCRF=(Solvent=water) volume NMR pop=NPA density=current Geom=AllCheck Guess=Read


--Link1--
%nprocshared=4
%mem=8GB
%Oldchk=IWBOPFCKHIJFMS-UHFFFAOYSA-N_conf_1_1.chk
%Chk=IWBOPFCKHIJFMS-UHFFFAOYSA-N_conf_1_2.chk
# TD(NStates=10, Root=1) B3LYP/6-31G** SCRF=(Solvent=water) volume pop=NPA density=current Geom=AllCheck Guess=Read



