%nprocshared=4
%mem=8GB
%Chk=IWBOPFCKHIJFMS-UHFFFAOYSA-N_conf_0_0.chk
# opt=CalcFc B3LYP/6-31G** SCRF=(Solvent=water) scf=xqc 

IWBOPFCKHIJFMS-UHFFFAOYSA-N_conf_0

0 1
N 4.881417220764966 0.9465192216651279 -0.19619094943321425
C 4.0668781279675885 -0.2711410544668757 -0.21468636707307337
C 2.643963338386964 -0.04994719165048064 0.3226906118361809
O 1.8813026627719043 0.7185185833509613 -0.6093974035347457
C 0.576030294301908 1.0429971536761946 -0.13438792862875815
C -0.4162090272080081 -0.09610406081529876 -0.35900136761807955
O -1.7058114806623597 0.30070280448137565 0.10838477867904019
C -2.6818366938933744 -0.7188749122616186 -0.11932888368318594
C -4.0301615108243505 -0.24288604507302342 0.42907370225443764
N -5.099936109209053 -1.2108676187476417 0.18961780997500113
H 5.83278138492516 0.7264487156158514 -0.4832233546741077
H 4.931214744224616 1.321813276032938 0.7482955037570247
H 4.565995518140705 -1.0303940740078543 0.3967527139725761
H 4.019257151634257 -0.6376058365448335 -1.2455348347706314
H 2.6801319227174445 0.459729287600178 1.2928896464660908
H 2.1663160246646362 -1.0257783720700946 0.4595068345173368
H 0.6025505176991199 1.3467415301538332 0.9192497742924605
H 0.2349056695113335 1.922430761502486 -0.6925866078321785
H -0.45970301893098403 -0.3413898726884567 -1.4268927724896483
H -0.09539841909651567 -0.9955237296853259 0.1774703826030657
H -2.7582381193191896 -0.9105343656802043 -1.1962278341908925
H -2.373978340772109 -1.6418162803125245 0.3863201795009117
H -3.9387412485572915 -0.06025291969239401 1.505873941729418
H -4.295171969787159 0.7195805581585439 -0.023834822006441516
H -5.9684447216307035 -0.8444743494767833 0.5790572930942139
H -5.259113917819627 -1.297282839346082 -0.8138900467428195


--Link1--
%nprocshared=4
%mem=8GB
%Oldchk=IWBOPFCKHIJFMS-UHFFFAOYSA-N_conf_0_0.chk
%Chk=IWBOPFCKHIJFMS-UHFFFAOYSA-N_conf_0_1.chk
# freq B3LYP/6-31G** SCRF=(Solvent=water) volume NMR pop=NPA density=current Geom=AllCheck Guess=Read


--Link1--
%nprocshared=4
%mem=8GB
%Oldchk=IWBOPFCKHIJFMS-UHFFFAOYSA-N_conf_0_1.chk
%Chk=IWBOPFCKHIJFMS-UHFFFAOYSA-N_conf_0_2.chk
# TD(NStates=10, Root=1) B3LYP/6-31G** SCRF=(Solvent=water) volume pop=NPA density=current Geom=AllCheck Guess=Read



