%nprocshared=7
%mem=14GB
%Chk=LACZRKUWKHQVKS-UHFFFAOYSA-N_conf_2_0.chk
# opt=CalcFc B3LYP/6-31G** SCRF=(Solvent=water) scf=xqc 

LACZRKUWKHQVKS-UHFFFAOYSA-N_conf_2

0 1
N 6.530107803473691 0.16335128730876458 1.878461318481966
C 5.576537178486305 0.503764642223331 0.9156299958077062
C 4.838060916063851 1.680384899804151 1.0421724505989056
C 3.792434074788795 1.9609124213212574 0.16252160172329772
C 3.4387444434562386 1.0322832967695406 -0.8187822269142129
O 2.407701067215546 1.3670425044719017 -1.6629588235723929
C 1.1880831133915077 0.7605446558979462 -1.4453474161364355
C 0.3917213219476151 0.5879122868691165 -2.5815391508760785
C -0.8653467148182875 -0.009098269907577394 -2.4743141092019583
C -1.3362823203240712 -0.40540808635517084 -1.223161419413789
O -2.5686630782067037 -1.0155442309440927 -1.17001897120768
C -3.4931087396781124 -0.45095961495212095 -0.31850882630459476
C -3.817817231639098 0.9060891872015283 -0.4062246926474318
C -4.794106122878015 1.4470619861454876 0.4329402094489238
C -5.433204135379426 0.6515681262136305 1.3854780348361342
N -6.49525774789146 1.166662009684252 2.134933632474553
C -5.152761703693414 -0.7187686689611964 1.414115889638675
C -4.173162393301212 -1.2844026622355957 0.5762166176510903
C -3.8674674698773064 -2.7552772402773886 0.6397744885207849
F -4.607855265465185 -3.4159643612179718 1.5780130006196438
F -2.5683578473684463 -3.0129106567908885 0.9616887742826484
F -4.108397250318902 -3.4049612109177754 -0.532298759020493
C -0.5461985036969867 -0.2370547490612433 -0.08387890261755086
C 0.7154727552336293 0.35463290153386506 -0.1936914929222496
C 4.153209079131608 -0.16178045340369399 -0.9635343291965521
C 3.8139962648707657 -1.1703873237570315 -2.0259788999053323
F 2.765291205140022 -1.9682121810956685 -1.681611253992434
F 4.846978592755948 -2.0253765170023943 -2.2865101085696686
F 3.5003212598780404 -0.6197244604688812 -3.2319617496251882
C 5.196824491240753 -0.4269202574678516 -0.05627375901753892
H 6.968336551157644 0.9612766111693 2.329307592361019
H 7.212013650720227 -0.5201171394837465 1.5651259627819047
H 5.071477487444017 2.39096732748758 1.8310380043919405
H 3.2380244946228 2.8915847432080852 0.2565535156598608
H 0.7593996449242423 0.9009713141931623 -3.555168998779693
H -1.4734104198151858 -0.16186494370665463 -3.3623437176366577
H -3.333779755576201 1.5443896027765773 -1.1416323167371103
H -5.05767267343205 2.4970718918650787 0.3277489611297886
H -6.446423444822042 2.168951831772369 2.2942849658641085
H -6.694979638238289 0.6547119225784583 2.9875684066091734
H -5.706949505966899 -1.360100693856016 2.0978767346871106
H -0.8979220727241043 -0.5761558100852207 0.8869446275391354
H 1.3082402145256513 0.4855835947478249 0.7063127776682716
H 5.726148424640828 -1.3767295132972812 -0.11780582531302931


--Link1--
%nprocshared=7
%mem=14GB
%Oldchk=LACZRKUWKHQVKS-UHFFFAOYSA-N_conf_2_0.chk
%Chk=LACZRKUWKHQVKS-UHFFFAOYSA-N_conf_2_1.chk
# freq B3LYP/6-31G** SCRF=(Solvent=water) volume NMR pop=NPA density=current Geom=AllCheck Guess=Read


--Link1--
%nprocshared=7
%mem=14GB
%Oldchk=LACZRKUWKHQVKS-UHFFFAOYSA-N_conf_2_1.chk
%Chk=LACZRKUWKHQVKS-UHFFFAOYSA-N_conf_2_2.chk
# TD(NStates=10, Root=1) B3LYP/6-31G** SCRF=(Solvent=water) volume pop=NPA density=current Geom=AllCheck Guess=Read



