%nprocshared=7
%mem=14GB
%Chk=LACZRKUWKHQVKS-UHFFFAOYSA-N_conf_1_0.chk
# opt=CalcFc B3LYP/6-31G** SCRF=(Solvent=water) scf=xqc

LACZRKUWKHQVKS-UHFFFAOYSA-N_conf_1

0 1
 N                 -7.23317800   -2.10879100   -0.83349100
 C                 -6.07940400   -1.54179400   -0.30308200
 C                 -5.06841000   -2.34666500    0.25682100
 C                 -3.88914300   -1.78254200    0.73308500
 C                 -3.68342600   -0.40496800    0.65660400
 O                 -2.54914000    0.17861500    1.20677200
 C                 -1.31198800   -0.02231500    0.60496900
 C                 -1.15121900   -0.40603500   -0.73486100
 C                  0.14053700   -0.53903600   -1.26653000
 C                  1.26270900   -0.29266600   -0.46453200
 O                  2.50928100   -0.50647800   -1.04455300
 C                  3.58238300    0.27740600   -0.64456600
 C                  3.58071500    1.66074800   -0.82790500
 C                  4.70124300    2.41606600   -0.49764300
 C                  5.86028000    1.80421800    0.01754900
 N                  7.00630100    2.54935500    0.28079800
 C                  5.85117500    0.41065600    0.19816000
 C                  4.72270000   -0.34646500   -0.12183400
 C                  4.72340600   -1.83456200    0.09866200
 F                  3.70355500   -2.22629100    0.90496900
 F                  4.59212900   -2.52650900   -1.06016500
 F                  5.86919300   -2.26226600    0.68164100
 C                  1.10240900    0.08768600    0.87651500
 C                 -0.18707400    0.22427900    1.40783500
 C                 -4.67712700    0.41058000    0.09904400
 C                 -4.46380400    1.89761400    0.01602000
 F                 -3.33793600    2.20944700   -0.67212100
 F                 -5.48737400    2.52577000   -0.60633200
 F                 -4.34197000    2.46789000    1.23797500
 C                 -5.86458000   -0.15412700   -0.36950000
 H                 -8.03073700   -1.48973000   -0.89593400
 H                 -7.48940500   -3.00784100   -0.44703200
 H                 -5.21438200   -3.42091000    0.32363600
 H                 -3.12151800   -2.40869200    1.17576600
 H                 -2.01637800   -0.58898300   -1.36114500
 H                  0.28369200   -0.83055500   -2.30193700
 H                  2.69668200    2.14176100   -1.23320300
 H                  4.68529700    3.49176300   -0.64770100
 H                  6.84562100    3.52941500    0.47360400
 H                  7.64130400    2.14019100    0.95383300
 H                  6.72763200   -0.08628800    0.59842600
 H                  1.97060700    0.26433900    1.50137800
 H                 -0.33108400    0.51495200    2.44338300
 H                 -6.62700300    0.48870800   -0.79454700


--Link1--
%nprocshared=7
%mem=14GB
%Oldchk=LACZRKUWKHQVKS-UHFFFAOYSA-N_conf_1_0.chk
%Chk=LACZRKUWKHQVKS-UHFFFAOYSA-N_conf_1_1.chk
# freq B3LYP/6-31G** SCRF=(Solvent=water) volume NMR pop=NPA density=current Geom=AllCheck Guess=Read


--Link1--
%nprocshared=7
%mem=14GB
%Oldchk=LACZRKUWKHQVKS-UHFFFAOYSA-N_conf_1_1.chk
%Chk=LACZRKUWKHQVKS-UHFFFAOYSA-N_conf_1_2.chk
# TD(NStates=10, Root=1) B3LYP/6-31G** SCRF=(Solvent=water) volume pop=NPA density=current Geom=AllCheck Guess=Read



