%nprocshared=7
%mem=14GB
%Chk=LACZRKUWKHQVKS-UHFFFAOYSA-N_conf_3_0.chk
# opt=CalcFc B3LYP/6-31G** SCRF=(Solvent=water) scf=xqc 

LACZRKUWKHQVKS-UHFFFAOYSA-N_conf_3

0 1
N -6.986160640864569 2.264917700009066 -0.47463576203996755
C -5.923111530382533 1.3837244944041875 -0.25883364627042194
C -4.897954218888798 1.7214075965648306 0.6258511939292852
C -3.7718650118291026 0.9065839563147153 0.7563437998762593
C -3.6352965963649515 -0.22876559585792944 -0.0474669763853742
O -2.551893445703998 -1.0685981069074395 0.08521726187181676
C -1.300134722150754 -0.49925250320456854 0.013531744950656633
C -0.9401319205576962 0.4191667659271241 -0.9765293750630817
C 0.35843338724379636 0.9305585578810479 -1.0063936068528705
C 1.299342282566227 0.5000302266856856 -0.06945970488329999
O 2.5510036298900665 1.069463962212631 -0.14080194387353218
C 3.63450067768785 0.22924179571520584 -0.011467184534138187
C 3.7695219993220985 -0.9049575942466332 -0.8171536896517848
C 4.895983094487249 -1.7198435832218268 -0.6901446516826579
C 5.9229008639711935 -1.3833450948341282 0.192921219262099
N 6.986562744096732 -2.2646673189576783 0.40514945602901703
C 5.761222299958982 -0.26617410822130455 1.0174614225531016
C 4.633939152420003 0.5688272321336848 0.906547248718874
C 4.48951804908698 1.7837507635307022 1.779768172012848
F 4.349876272834816 2.9397825242965503 1.0731804448296298
F 5.564810423102099 1.988817645036347 2.5963322633146846
F 3.413550899464375 1.7122469996780332 2.6127065034850627
C 0.9393673642818524 -0.4183346385370146 0.9206821474477056
C -0.3591698381480245 -0.9298406385774926 0.9504029673699567
C -4.6328686836499875 -0.5696010628094936 -0.9670366160245192
C -4.487067839833946 -1.786159275928108 -1.8377438099245325
F -4.354421412965461 -2.9414619656354932 -1.1285217077606398
F -5.558660330867368 -1.9895557955765109 -2.659577478225515
F -3.4066084428971584 -1.719011242619155 -2.6652070267162475
C -5.759881613226931 0.26528569443385275 -1.081369088809476
H -7.816153790183791 1.8328045122953056 -0.8689206812174831
H -7.203454018180553 2.8571922854487726 0.3212526079225116
H -4.969045599507318 2.622818000718364 1.2293308564938066
H -3.0034481819295578 1.169517718548324 1.4788825616241557
H -1.6560684428145496 0.7385206310367434 -1.728587161217022
H 0.6388887111369933 1.655253654939722 -1.7661790933559898
H 2.999741048313762 -1.1669264195150402 -1.5385578767097525
H 4.965964714175787 -2.620302354193528 -1.295157003275709
H 7.202141638079691 -2.8557806916668698 -0.3920862532119711
H 7.817376229167878 -1.8328858666390861 0.7980706575761138
H 6.5254563051291585 -0.036946818803420656 1.7587717286959115
H 1.6554449562159634 -0.737654027442492 1.6726352242353208
H -0.6394686063240599 -1.65484489907943 1.7098655217688554
H -6.522681855360605 0.034996884664087395 -1.823833192364993


--Link1--
%nprocshared=7
%mem=14GB
%Oldchk=LACZRKUWKHQVKS-UHFFFAOYSA-N_conf_3_0.chk
%Chk=LACZRKUWKHQVKS-UHFFFAOYSA-N_conf_3_1.chk
# freq B3LYP/6-31G** SCRF=(Solvent=water) volume NMR pop=NPA density=current Geom=AllCheck Guess=Read


--Link1--
%nprocshared=7
%mem=14GB
%Oldchk=LACZRKUWKHQVKS-UHFFFAOYSA-N_conf_3_1.chk
%Chk=LACZRKUWKHQVKS-UHFFFAOYSA-N_conf_3_2.chk
# TD(NStates=10, Root=1) B3LYP/6-31G** SCRF=(Solvent=water) volume pop=NPA density=current Geom=AllCheck Guess=Read



