%nprocshared=7
%mem=14GB
%Chk=LACZRKUWKHQVKS-UHFFFAOYSA-N_conf_4_0.chk
# opt=CalcFc B3LYP/6-31G** SCRF=(Solvent=water) scf=xqc 

LACZRKUWKHQVKS-UHFFFAOYSA-N_conf_4

0 1
N 5.835753632924625 2.6513467397647377 -0.3371617624070847
C 5.080918983122125 1.5491264298316727 0.0734683173899506
C 3.968739460461101 1.7259880490594057 0.8977219458674753
C 3.136946143104698 0.6499441246046186 1.2127812348054043
C 3.380775778575611 -0.6076394074261541 0.6533722438726913
O 2.5967033803989095 -1.6929589355305068 0.9760182790693449
C 1.236295331845756 -1.5555634774011369 0.8129934144495755
C 0.663103640883999 -1.0254258669987906 -0.34642550193785443
C -0.7265836747902423 -0.9464565155061601 -0.45995611270608944
C -1.535861179076951 -1.397293666551242 0.586769982900757
O -2.9113793249098063 -1.3790677875928021 0.5276262720032676
C -3.5071327108902204 -0.22058268414839394 0.08063602477019088
C -3.210782822464999 1.014916494855928 0.6632759296893059
C -3.859352989152727 2.1688027828400678 0.21920300511551097
C -4.785488329562607 2.109281366391528 -0.8229788145923749
N -5.517585022552678 3.244810527869673 -1.1802005244452083
C -5.132355236153311 0.8582901950803887 -1.3413565371467606
C -4.492013442333152 -0.3175741575810913 -0.9078199077213503
C -4.85823820986265 -1.652394674535225 -1.4944728239487028
F -5.318063202601318 -2.5389915725557137 -0.568903250934649
F -3.8107016995531153 -2.2595228123548456 -2.1195418462511926
F -5.841695928573745 -1.5718049638197076 -2.4385720058309723
C -0.9624889353658282 -1.9688346992088182 1.7235898713464521
C 0.4260648333601193 -2.0483456354876273 1.8368551038942875
C 4.4694262618624485 -0.8028435891418064 -0.2030450696040589
C 4.732232407843383 -2.1521849116207314 -0.8115326991696481
F 5.85208064646425 -2.1790185631671948 -1.59268267115544
F 4.917773543311548 -3.1323570081224026 0.11565175353997004
F 3.719553204234347 -2.57461594124553 -1.618848580623293
C 5.294566064196314 0.2957205211157269 -0.5074195896500473
H 5.837219573551382 3.4235101561850563 0.322453585297171
H 6.770862547335096 2.4220032457924496 -0.6601651606891129
H 3.7421066591122174 2.706149518871573 1.3094231457859518
H 2.2983865715334018 0.8024972570963945 1.8870929727171102
H 1.28488286802165 -0.6897473736782659 -1.1717321385445252
H -1.1646937305433882 -0.5509360587203377 -1.3719783935985093
H -2.492035657600199 1.0851530937006888 1.4754789550759662
H -3.637020909195751 3.1174715392628616 0.7010935953889892
H -5.035294085226336 4.122101628167192 -1.010092683446207
H -5.9270584496532255 3.2056613383314554 -2.108606753567439
H -5.916624110354876 0.7931106363197824 -2.0942942187707714
H -1.5958318037331893 -2.353557725599613 2.5184007101302837
H 0.8747911384628206 -2.495151717192132 2.7198839208410654
H 6.11909878354326 0.16698410004585887 -1.2072789453130401


--Link1--
%nprocshared=7
%mem=14GB
%Oldchk=LACZRKUWKHQVKS-UHFFFAOYSA-N_conf_4_0.chk
%Chk=LACZRKUWKHQVKS-UHFFFAOYSA-N_conf_4_1.chk
# freq B3LYP/6-31G** SCRF=(Solvent=water) volume NMR pop=NPA density=current Geom=AllCheck Guess=Read


--Link1--
%nprocshared=7
%mem=14GB
%Oldchk=LACZRKUWKHQVKS-UHFFFAOYSA-N_conf_4_1.chk
%Chk=LACZRKUWKHQVKS-UHFFFAOYSA-N_conf_4_2.chk
# TD(NStates=10, Root=1) B3LYP/6-31G** SCRF=(Solvent=water) volume pop=NPA density=current Geom=AllCheck Guess=Read



