%nprocshared=6
%mem=12GB
%Chk=JCEZOHLWDIONSP-UHFFFAOYSA-N_conf_1_0.chk
# opt=CalcFc B3LYP/6-31G** SCRF=(Solvent=water) scf=xqc 

JCEZOHLWDIONSP-UHFFFAOYSA-N_conf_1

0 1
N 6.931934224566044 0.057788910298712894 -0.4425122444786948
C 6.019824476697665 0.5181938581064557 0.602901310308133
C 4.884793150763588 1.3790950074532962 0.0475181043648169
C 3.9428081166296134 0.6447883532857708 -0.9016736872153146
O 3.36314328583988 -0.468658226218251 -0.22551571350366134
C 2.4603176014943324 -1.2251798810686447 -1.039219180138342
C 1.0718541851372039 -0.5850465118891257 -1.1427733775439681
O 0.42582981255624824 -0.6356326085928573 0.13323789733064795
C -0.8339783171526356 0.03417548529482929 0.1548485801380512
C -1.9599233470229878 -0.8371093571696713 -0.40551181461527974
O -3.219399013785536 -0.16398399529767888 -0.3923411916288158
C -3.8690116963523544 -0.2144689149520496 0.8763396129922855
C -5.222902594176202 0.4832598760683838 0.7755382435259538
C -6.1659318487426775 -0.2420878528497158 -0.18476285379659288
N -7.472513210699225 0.4114673963190107 -0.2344949236031603
H 7.712813527736578 -0.4284403804762812 -0.0015238081530469611
H 6.457087500836166 -0.6518693705934778 -1.0007372566057753
H 5.623840167749281 -0.3438428722449547 1.1506811026095423
H 6.593010241675878 1.1171686399822436 1.3193909791246419
H 5.2990413870308055 2.257228210319664 -0.4624381400453352
H 4.3020702111874884 1.7485450651792886 0.9008092935280979
H 4.480336904379754 0.2994398900012146 -1.791526108635787
H 3.1577216788308995 1.3368875694779103 -1.2222428888712624
H 2.3670129051052307 -2.2066249037582204 -0.5621691459695136
H 2.8944436669546674 -1.3758904585922687 -2.034010110333809
H 1.1459498350255055 0.45658691231243126 -1.4688777529708943
H 0.4767155343078786 -1.1469069182707905 -1.8693105827758059
H -1.04395720339161 0.27323471730768006 1.2021741457934356
H -0.7794845244987716 0.996394974693979 -0.3685758977777862
H -1.7467165165034102 -1.0817002958148418 -1.4509141965463797
H -2.019434508822443 -1.7962914653258215 0.12302213556007695
H -4.003025105197449 -1.2573929927304572 1.185770427424529
H -3.25837966363459 0.29950489448806544 1.6254795456415767
H -5.672130631366931 0.5326220940937941 1.7746898270421099
H -5.074269014223006 1.512537688223627 0.4257103566216912
H -5.7466881756429355 -0.26581174465144625 -1.1961392180610106
H -6.30498062458383 -1.2804424302490875 0.13515614919092214
H -7.356647505915797 1.3709210876624893 -0.5597590868409927
H -7.86117491279301 0.47754055017662017 0.7050429416405131


--Link1--
%nprocshared=6
%mem=12GB
%Oldchk=JCEZOHLWDIONSP-UHFFFAOYSA-N_conf_1_0.chk
%Chk=JCEZOHLWDIONSP-UHFFFAOYSA-N_conf_1_1.chk
# freq B3LYP/6-31G** SCRF=(Solvent=water) volume NMR pop=NPA density=current Geom=AllCheck Guess=Read


--Link1--
%nprocshared=6
%mem=12GB
%Oldchk=JCEZOHLWDIONSP-UHFFFAOYSA-N_conf_1_1.chk
%Chk=JCEZOHLWDIONSP-UHFFFAOYSA-N_conf_1_2.chk
# TD(NStates=10, Root=1) B3LYP/6-31G** SCRF=(Solvent=water) volume pop=NPA density=current Geom=AllCheck Guess=Read



