%nprocshared=6
%mem=12GB
%Chk=JCEZOHLWDIONSP-UHFFFAOYSA-N_conf_2_0.chk
# opt=CalcFc B3LYP/6-31G** SCRF=(Solvent=water) scf=xqc 

JCEZOHLWDIONSP-UHFFFAOYSA-N_conf_2

0 1
N 6.207265742885034 1.7748037309833418 1.4328708941186425
C 4.9548702989850195 1.0353185441253674 1.293702998350094
C 5.236120300115212 -0.4406661704094048 1.0172268741218997
C 3.9531736835052094 -1.2645538644423744 0.9569995412670244
O 3.1271311402692934 -0.791263198226665 -0.10448303525020441
C 1.9233995483147575 -1.5491975990426439 -0.21731977783702267
C 1.102765278616546 -1.0177391576915051 -1.3911886873682746
O -0.11489576970089325 -1.7473814062999247 -1.549102561907515
C -1.192565517624771 -1.2477627826406317 -0.7575184689831658
C -1.932439990638913 -0.11300912161434522 -1.4697964802084784
O -3.007702926673643 0.39981686743424755 -0.6806143022183038
C -4.208023752036497 -0.36336880774893127 -0.8125833580021561
C -5.314425790878384 0.2570422034894572 0.0405183638734573
C -5.763568621560329 1.638609458028652 -0.4451846801042998
N -4.743705263869835 2.666943283673071 -0.26278261398388264
H 5.999140590839186 2.7533596085706864 1.6270857867552795
H 6.726782458435725 1.4267932220163626 2.2369198017398317
H 4.369013693304091 1.1455133832718851 2.2128318799634377
H 4.375442049713695 1.4737890501041737 0.4746075990536366
H 5.768158362049757 -0.5299317389062864 0.061737140339340135
H 5.8853494672263755 -0.8547012873371822 1.7981433049563007
H 3.4107257050536317 -1.1900506451704533 1.9066820059604943
H 4.206789238889058 -2.315893695771829 0.7790458959143676
H 1.352526808110671 -1.4745092393916543 0.7147669710232475
H 2.156960624584142 -2.6080363116363503 -0.38095432768439963
H 0.920818261908821 0.05842767379826141 -1.290746874003755
H 1.6820210875671289 -1.1431351427670133 -2.313067330182311
H -0.8534082261266661 -0.933069712987314 0.23613064308938225
H -1.8783450304518603 -2.084759463645475 -0.5926490757068364
H -1.2430925713465482 0.7191423607189029 -1.64572842249433
H -2.28314989017496 -0.4282474828054551 -2.4600165557311873
H -4.515341328423003 -0.3919401876499215 -1.8642977777936123
H -4.030380366906741 -1.3882274451002161 -0.4710701001335562
H -4.978827245870245 0.33058340731057806 1.0824516813551461
H -6.18229269261091 -0.41298264362447135 0.024635653510201617
H -6.037879240422714 1.591623515276316 -1.504753921369471
H -6.6614872612223985 1.9410083551316384 0.10467509857680389
H -3.8604196678167666 2.3009835888872057 -0.6377669140724447
H -4.556503186017848 2.776668852090062 0.7336657558718338


--Link1--
%nprocshared=6
%mem=12GB
%Oldchk=JCEZOHLWDIONSP-UHFFFAOYSA-N_conf_2_0.chk
%Chk=JCEZOHLWDIONSP-UHFFFAOYSA-N_conf_2_1.chk
# freq B3LYP/6-31G** SCRF=(Solvent=water) volume NMR pop=NPA density=current Geom=AllCheck Guess=Read


--Link1--
%nprocshared=6
%mem=12GB
%Oldchk=JCEZOHLWDIONSP-UHFFFAOYSA-N_conf_2_1.chk
%Chk=JCEZOHLWDIONSP-UHFFFAOYSA-N_conf_2_2.chk
# TD(NStates=10, Root=1) B3LYP/6-31G** SCRF=(Solvent=water) volume pop=NPA density=current Geom=AllCheck Guess=Read



