%nprocshared=3
%mem=6GB
%Chk=OCIDXARMXNJACB-UHFFFAOYSA-N_conf_0_0.chk
# opt=CalcFc B3LYP/6-31G** SCRF=(Solvent=water) scf=xqc 

OCIDXARMXNJACB-UHFFFAOYSA-N_conf_0

0 1
N -3.5158843660347365 0.7066033836616875 0.00016630233193025009
C -3.01421532577683 -0.6538872091418875 -0.23389277008821205
C -1.5135736389241055 -0.7202331199254569 -0.5904020569048344
N -0.7114166423980907 -0.042624198224728654 0.42948143873702993
C 0.6744232402091778 0.06283224612974295 0.2533576495658767
C 1.3758542663715585 0.9899519095787743 1.0394345285027038
C 2.7671319559363203 1.1063731906886185 0.9642474621299894
C 3.4884919846597153 0.2728774241484375 0.11666114276837458
C 2.8176380180529756 -0.6825579639279453 -0.6403213604242676
C 1.4245494246615151 -0.7944634604079397 -0.5597053860957377
H -3.1288517922156207 1.3397299217253034 -0.6982767983281168
H -3.1845847450695706 1.0305360448969103 0.9072207181644951
H -3.2071948163856656 -1.2505585290246872 0.6649326196394184
H -3.5912695867548887 -1.1033465863441996 -1.0491373037655034
H -1.3548664570388795 -0.2460670130944476 -1.566837451816868
H -1.2317670078051741 -1.7765558151188816 -0.664509938993877
H -1.1080207079382236 0.8524579774006739 0.700171769189622
H 0.8373751476694754 1.635556406289306 1.7288024703158713
H 3.2834392503457295 1.8405311421580282 1.5765942155954433
H 4.570158866834723 0.3560648404140173 0.05807965567851788
H 3.3765904472525192 -1.3525882643104403 -1.2882126976493924
H 0.9459924843479449 -1.5706323275706007 -1.1478542085524903


--Link1--
%nprocshared=3
%mem=6GB
%Oldchk=OCIDXARMXNJACB-UHFFFAOYSA-N_conf_0_0.chk
%Chk=OCIDXARMXNJACB-UHFFFAOYSA-N_conf_0_1.chk
# freq B3LYP/6-31G** SCRF=(Solvent=water) volume NMR pop=NPA density=current Geom=AllCheck Guess=Read


--Link1--
%nprocshared=3
%mem=6GB
%Oldchk=OCIDXARMXNJACB-UHFFFAOYSA-N_conf_0_1.chk
%Chk=OCIDXARMXNJACB-UHFFFAOYSA-N_conf_0_2.chk
# TD(NStates=10, Root=1) B3LYP/6-31G** SCRF=(Solvent=water) volume pop=NPA density=current Geom=AllCheck Guess=Read



