%nprocshared=3
%mem=6GB
%Chk=OCIDXARMXNJACB-UHFFFAOYSA-N_conf_2_0.chk
# opt=CalcFc B3LYP/6-31G** SCRF=(Solvent=water) scf=xqc 

OCIDXARMXNJACB-UHFFFAOYSA-N_conf_2

0 1
N 3.456528921846805 1.0409270927856973 0.7708198624111234
C 2.2108272526413217 0.268082001781246 0.7709404032529872
C 1.7890181929903213 -0.20424198069646085 -0.6348677245076034
N 0.6100964910039643 -1.0655506162304265 -0.5977671868511532
C -0.6610786858969977 -0.5582925105678499 -0.32385894528684733
C -1.6767485046065 -1.4597304433572018 0.03020391181085269
C -2.9878170949283294 -1.0315496053459905 0.2605898615357314
C -3.3149818999447858 0.31158810206978793 0.11346203772823435
C -2.3337751787063983 1.21708098127939 -0.2770341701095086
C -1.0234448589411864 0.7808253350939868 -0.5069720378840407
H 4.2050202069669576 0.48878655824496003 0.35375082339500447
H 3.3469973690461035 1.8651243380460198 0.18079598510994468
H 2.3415068784760464 -0.6002519627649766 1.4269445739541955
H 1.4231650659698287 0.8826130225654162 1.2194749751335952
H 1.6466491969718788 0.6444235247088794 -1.3133294636477477
H 2.6069470072211582 -0.7948189594750188 -1.0660598286286318
H 0.7812164408989158 -1.9479960347035479 -0.12159325693170218
H -1.4526544602690492 -2.5189269249409643 0.13045662698505384
H -3.750683994361792 -1.7509464436925966 0.5451466592247107
H -4.33275168581278 0.6492308323496774 0.2877527313520948
H -2.585730064910134 2.265289078331502 -0.4144595507104269
H -0.29830659565520984 1.5183346145186114 -0.8343962873358959


--Link1--
%nprocshared=3
%mem=6GB
%Oldchk=OCIDXARMXNJACB-UHFFFAOYSA-N_conf_2_0.chk
%Chk=OCIDXARMXNJACB-UHFFFAOYSA-N_conf_2_1.chk
# freq B3LYP/6-31G** SCRF=(Solvent=water) volume NMR pop=NPA density=current Geom=AllCheck Guess=Read


--Link1--
%nprocshared=3
%mem=6GB
%Oldchk=OCIDXARMXNJACB-UHFFFAOYSA-N_conf_2_1.chk
%Chk=OCIDXARMXNJACB-UHFFFAOYSA-N_conf_2_2.chk
# TD(NStates=10, Root=1) B3LYP/6-31G** SCRF=(Solvent=water) volume pop=NPA density=current Geom=AllCheck Guess=Read



