%nprocshared=9
%mem=18GB
%Chk=HHLMWQDRYZAENA-UHFFFAOYSA-N_conf_1_0.chk
# opt=CalcFc B3LYP/6-31G** SCRF=(Solvent=water) scf=xqc 

HHLMWQDRYZAENA-UHFFFAOYSA-N_conf_1

0 1
F 1.0933175371186576 -2.2855765979721627 2.5598077523003804
C 0.5668703443788982 -3.1252616582211443 1.630026965037038
C -0.03208867316765129 -2.3621283930063206 0.43910483998087413
C -1.1600721429653218 -1.351744611974077 0.811132192552877
C -1.7288021806296547 -0.5423200027423187 -0.19737517357902182
C -2.742216676682534 0.37535887087327463 0.09099918072410934
C -3.2202430434665477 0.4919897466383785 1.393411332388579
O -4.190349395731269 1.3987246805651192 1.750904318349676
C -5.3315503109870725 1.4352157033421153 0.9826920717968373
C -5.8292718801765835 2.691850417002233 0.6457538408421895
C -7.003964216634129 2.797513496779833 -0.10401631521531894
C -7.67441960970249 1.653140103438941 -0.545608856975603
N -8.90942916799686 1.7666059556401956 -1.1937024511337155
C -7.209720041812807 0.40157970644664476 -0.1314237756425038
C -6.03553999036098 0.2869301641701228 0.618502225739732
C -2.6607374145242244 -0.276260857893776 2.4095088171686205
C -1.6462303966932041 -1.1958021237982435 2.1222186225953017
C 1.129794550167607 -1.609507273259085 -0.27842888171415625
C 1.6210405336347222 -1.9862400147919195 -1.5416938844341894
C 2.6690923352910474 -1.2830178544909383 -2.1457590574100123
C 3.256567068184726 -0.20172582709969872 -1.4959087834137825
O 4.259066787192194 0.461806883992276 -2.164084761190037
C 5.383420021771973 0.7950592184740745 -1.4447884081409597
C 5.8891919280803355 2.0817277900325633 -1.6155074659156625
C 7.048361672805156 2.4696746432652117 -0.9380166351189027
C 7.694591672944495 1.5879833004381954 -0.06670064050908167
N 8.91632659008396 1.943496058537092 0.5155581871900887
C 7.223533793831438 0.2751547203808819 0.03139365733297253
C 6.06462846854462 -0.1210202721617796 -0.6425796227145055
C 2.773671116647535 0.207811721342673 -0.2558020922738596
C 1.7278970888721183 -0.4941682812657178 0.34923807543313673
C -0.667072618650003 -3.496330554265115 -0.3793614679623056
F -1.1667241203523901 -3.0522973655427053 -1.562649638384845
F -1.7009335829424912 -4.0872507607051585 0.2657269102562662
F 0.2089391181271205 -4.4800128220902256 -0.690853045159008
F 1.5720719443439115 -3.955294411928613 1.2634107705673767
F -0.34290145203172195 -3.883362786262151 2.2853752180730327
H -1.381581120677096 -0.6066528081243113 -1.2287689402182818
H -3.146050255959106 0.9964198939596504 -0.7042653554964948
H -5.311614671824757 3.5888176605286244 0.9730521649570395
H -7.3935005961279145 3.784571822486687 -0.33777683456137464
H -9.167046326886863 0.947488410228856 -1.7351458549746117
H -9.01940924567884 2.6273749302268907 -1.7202902526373922
H -7.762351190559453 -0.4989534305843768 -0.3857001667035366
H -5.693192983414968 -0.6963183835605421 0.9282250534757045
H -3.0196265838882894 -0.16561602931181416 3.4300944652506478
H -1.2588477327142589 -1.7743152883930173 2.9584235462292074
H 1.2128329011286465 -2.8285864598786707 -2.096595827537384
H 3.031899670299719 -1.5860399723663208 -3.1251879476663733
H 5.389577610214285 2.7803510275220686 -2.280908136704805
H 7.444407581936753 3.4686646795942893 -1.0999629737151966
H 9.149961064722225 1.4028137798994336 1.3424726909700322
H 9.025467596223338 2.941925770207132 0.6639356227321804
H 7.759301296692141 -0.4553023788861647 0.6316820030395845
H 5.716112133680878 -1.1456862185063594 -0.5512172386195854
H 3.198244109777067 1.073595904100888 0.2457484916303189
H 1.3793010865030664 -0.14566346149725976 1.3216814690636505


--Link1--
%nprocshared=9
%mem=18GB
%Oldchk=HHLMWQDRYZAENA-UHFFFAOYSA-N_conf_1_0.chk
%Chk=HHLMWQDRYZAENA-UHFFFAOYSA-N_conf_1_1.chk
# freq B3LYP/6-31G** SCRF=(Solvent=water) volume NMR pop=NPA density=current Geom=AllCheck Guess=Read


--Link1--
%nprocshared=9
%mem=18GB
%Oldchk=HHLMWQDRYZAENA-UHFFFAOYSA-N_conf_1_1.chk
%Chk=HHLMWQDRYZAENA-UHFFFAOYSA-N_conf_1_2.chk
# TD(NStates=10, Root=1) B3LYP/6-31G** SCRF=(Solvent=water) volume pop=NPA density=current Geom=AllCheck Guess=Read



