%nprocshared=9
%mem=18GB
%Chk=HHLMWQDRYZAENA-UHFFFAOYSA-N_conf_0_0.chk
# opt=CalcFc B3LYP/6-31G** SCRF=(Solvent=water) scf=xqc 

HHLMWQDRYZAENA-UHFFFAOYSA-N_conf_0

0 1
F 0.5517150307657284 -4.352174719380942 -1.1730481125584207
C -0.3627282835558382 -3.493888262839628 -0.6640625861209641
C 0.020963119260149002 -2.0195549075252326 -0.860272949492043
C 1.3522154359689835 -1.5933520998443917 -0.169528675888657
C 1.7554232090614608 -0.24019807354284553 -0.2126053404598542
C 2.941243674458787 0.18612070576698234 0.39132498919349323
C 3.760559303216985 -0.7361362276457705 1.0372422024370278
O 4.924069877638269 -0.3849515891800748 1.6819011486743936
C 5.778868308106558 0.4676758271234177 1.0226475856829613
C 6.2746009072579625 1.5538459947741137 1.7401624665193212
C 7.167620377254086 2.439776747409256 1.1316322822856288
C 7.617384033929325 2.2159742001435876 -0.17295751518415087
N 8.413662723049647 3.1697990249002648 -0.816661431780434
C 7.086410219681668 1.1414257337714697 -0.8928054871953913
C 6.192757154135326 0.2503716073111864 -0.2918270339649664
C 3.374607018182917 -2.07117721496638 1.1127811158873093
C 2.186688656846338 -2.499371175249201 0.5099093368243526
C -1.1518769443090995 -1.1446961763715042 -0.3213910820134024
C -1.3899612821958058 -1.0803026136947775 1.069346984044461
C -2.4292039411719126 -0.3077045452248895 1.593576558728752
C -3.2638152440309436 0.40621544137999055 0.7407790212722096
O -4.24445446567555 1.1734529827607307 1.325980881323732
C -5.489369623580118 1.1641550369284375 0.7413276853532296
C -6.1011764362517225 2.396785348210842 0.5253605048429358
C -7.3777759111406525 2.4496013622437154 -0.040317936914586884
C -8.075283641032899 1.2753802607015636 -0.3385041025195492
N -9.298834896260225 1.3357401446755557 -1.014965230537216
C -7.436567668804883 0.04640941451082449 -0.14806743036638115
C -6.159862573477336 -0.015575505602919258 0.41754457154996055
C -3.036500254215218 0.3786482417000021 -0.6341200989946003
C -1.9962776922187175 -0.39564740613303345 -1.1611066701869057
C 0.2347871452087483 -1.9451272033173637 -2.3794993372518856
F 0.47847467660792836 -0.6755360093086802 -2.7979869513283324
F 1.2914043279978822 -2.6848025624592347 -2.792497008174559
F -0.8373083871953703 -2.3716551232892016 -3.086884446521725
F -0.4869580241767603 -3.816971075512441 0.6502392023331657
F -1.5485706212792183 -3.8041111224970363 -1.2396867168305215
H 1.1429611880323132 0.5108525223849931 -0.7121497951568845
H 3.211009151921878 1.238530655345282 0.35517338174497465
H 5.952409714136164 1.7239428961773737 2.76346011933175
H 7.512927881804032 3.306463242225987 1.688728255443503
H 8.9370982278917 2.803179098545469 -1.6054060065408269
H 8.995717393442742 3.7123320530788955 -0.18613881507959
H 7.369478920340726 0.9842374183366281 -1.9301572369347502
H 5.820780482026593 -0.598815769605483 -0.8576614127885339
H 4.003738709060451 -2.785954612595268 1.638100270590266
H 1.9476910673526109 -3.5574534644368625 0.5955851720550095
H -0.7597487129380381 -1.6267938979399887 1.7711862664862417
H -2.5872405686678377 -0.26698584965269995 2.6683084943864257
H -5.579659909280247 3.3157363477400685 0.777191629177224
H -7.825560514369301 3.4188339127381586 -0.24248061213138866
H -9.826102811593014 2.184284496010426 -0.8348859410233379
H -9.866586462237867 0.500532404477508 -0.9113855145771674
H -7.931756767107965 -0.8778077379236923 -0.4335069264834374
H -5.696897901236872 -0.9825760180101012 0.5913128823472952
H -3.6605238995302445 0.9608896712019855 -1.3081924553050104
H -1.8766644971031188 -0.3818718288252345 -2.242719974060221


--Link1--
%nprocshared=9
%mem=18GB
%Oldchk=HHLMWQDRYZAENA-UHFFFAOYSA-N_conf_0_0.chk
%Chk=HHLMWQDRYZAENA-UHFFFAOYSA-N_conf_0_1.chk
# freq B3LYP/6-31G** SCRF=(Solvent=water) volume NMR pop=NPA density=current Geom=AllCheck Guess=Read


--Link1--
%nprocshared=9
%mem=18GB
%Oldchk=HHLMWQDRYZAENA-UHFFFAOYSA-N_conf_0_1.chk
%Chk=HHLMWQDRYZAENA-UHFFFAOYSA-N_conf_0_2.chk
# TD(NStates=10, Root=1) B3LYP/6-31G** SCRF=(Solvent=water) volume pop=NPA density=current Geom=AllCheck Guess=Read



