%nprocshared=9
%mem=18GB
%Chk=HHLMWQDRYZAENA-UHFFFAOYSA-N_conf_3_0.chk
# opt=CalcFc B3LYP/6-31G** SCRF=(Solvent=water) scf=xqc 

HHLMWQDRYZAENA-UHFFFAOYSA-N_conf_3

0 1
F 0.0007346106790853848 2.2800626401153306 2.069306963989839
C 0.03899579836992472 2.694652122063586 0.7748899240165
C -0.017500734566291316 1.5152824326913537 -0.2082840156083911
C -1.278526808789626 0.6076950250978621 -0.0704617298492459
C -1.3818213618126582 -0.5657750836463624 -0.8521918681523523
C -2.4964353123316214 -1.4036291350771322 -0.7624000883596366
C -3.5417719637526406 -1.0768809408880435 0.09508076588046604
O -4.598608809809172 -1.9541986762552497 0.1615193785906103
C -5.865775370301815 -1.420927726216153 0.09151357624945462
C -6.819408798638566 -1.9397732968154013 0.9645062588292388
C -8.134402136202379 -1.4681729469515945 0.9217094000987679
C -8.501604988759862 -0.4602310641832798 0.024802427733942263
N -9.843346128873653 -0.08271577606829858 -0.09685851947130522
C -7.554850519477834 -0.004852402452058788 -0.8981691485467369
C -6.236433400894021 -0.4685575687547761 -0.8580040582466432
C -3.456195484608446 0.06260451299856329 0.8941578044073726
C -2.338667754213237 0.9008291781091625 0.8078146796762482
C 1.2704828425583985 0.6600897806823873 -0.002310575370422314
C 1.4091492977662274 -0.11846002737056653 1.1690561490182334
C 2.544431259115714 -0.9013083360511782 1.389931926490502
C 3.5742734637382094 -0.9095509849187203 0.45607855735153985
O 4.649617379793537 -1.7279054842933548 0.7133105997088655
C 5.901814073036213 -1.1925057768328695 0.522075695085298
C 6.82555327317938 -1.9659212079993178 -0.17838042694042688
C 8.125694785789063 -1.4910813431009076 -0.37074096810107005
C 8.503175406545846 -0.232109196139391 0.10587868115042089
N 9.835178613231509 0.1863097116638803 0.007835124465371223
C 7.590166404265254 0.49867078881239607 0.8735760848133856
C 6.28925954714347 0.02855428392077906 1.0761021174483618
C 3.4562581642788675 -0.16499518198409807 -0.7162522506874908
C 2.3177865135526976 0.6171185655709376 -0.9408842685584903
C -0.10403796019718324 2.2320595112076624 -1.5649888193272046
F -1.2564162761026691 2.9278793078532983 -1.712907553494425
F -0.055801277187355544 1.3583465567226338 -2.6049993315343962
F 0.9060140386488221 3.1099875707137166 -1.7675805098006876
F 1.1729597233559006 3.4247195646539255 0.6478250702127566
F -0.9941462401725518 3.556974441055461 0.6293447880868126
H -0.5854218641354797 -0.8537832699869321 -1.5399914972215456
H -2.5504227891822144 -2.3063879004468024 -1.366734935051526
H -6.545931797428634 -2.7194115939862407 1.6690547011345191
H -8.872641878166236 -1.8962743545081457 1.594478244279324
H -10.381682296821984 -0.18648465504889386 0.7573624450837325
H -9.980379950782119 0.823991229036149 -0.5337656116550487
H -7.836281814810745 0.7167422380566014 -1.6597378601254835
H -5.51829379953354 -0.10587690541271083 -1.5897753800245227
H -4.255485200365327 0.3085491890722472 1.5906376044850774
H -2.335342439147543 1.7804255969797138 1.4501331112982103
H 0.6248909815154425 -0.13453450806536474 1.9267630029728844
H 2.6240134063121365 -1.5022301057895 2.292499780652914
H 6.540159385663377 -2.939624868720778 -0.5687855062945826
H 8.84075210209171 -2.1180153743730994 -0.8942626564414511
H 9.953414119961822 1.1919549586854914 0.07667224138983816
H 10.33039450357801 -0.2074048407831961 -0.785280043932562
H 7.885921509666806 1.4410249407308242 1.3265439521370568
H 5.596469712882301 0.6092145982193778 1.6796557952260898
H 4.242129761370162 -0.19372697865312352 -1.4666462341514885
H 2.2879444789553256 1.1795687670800263 -1.8716193626526858


--Link1--
%nprocshared=9
%mem=18GB
%Oldchk=HHLMWQDRYZAENA-UHFFFAOYSA-N_conf_3_0.chk
%Chk=HHLMWQDRYZAENA-UHFFFAOYSA-N_conf_3_1.chk
# freq B3LYP/6-31G** SCRF=(Solvent=water) volume NMR pop=NPA density=current Geom=AllCheck Guess=Read


--Link1--
%nprocshared=9
%mem=18GB
%Oldchk=HHLMWQDRYZAENA-UHFFFAOYSA-N_conf_3_1.chk
%Chk=HHLMWQDRYZAENA-UHFFFAOYSA-N_conf_3_2.chk
# TD(NStates=10, Root=1) B3LYP/6-31G** SCRF=(Solvent=water) volume pop=NPA density=current Geom=AllCheck Guess=Read



