%nprocshared=7
%mem=14GB
%Chk=QJENIOQDYXRGLF-UHFFFAOYSA-N_conf_0_0.chk
# opt=CalcFc B3LYP/6-31G** SCRF=(Solvent=water) scf=xqc 

QJENIOQDYXRGLF-UHFFFAOYSA-N_conf_0

0 1
N -4.669982914014144 0.1149631306897881 1.5075948623595665
C -3.4915319873305153 0.12180549414456375 0.7360149448697749
C -2.802375012920278 -1.08825935590957 0.5008186384474026
C -3.2196535166785223 -2.3764039680086673 1.159809974367756
C -1.6869125224369075 -1.106177031073681 -0.35390110433139604
C -1.2664303577324212 0.04733306341807932 -1.022019352365566
C -0.07505225157411956 0.012632672400891937 -1.952643021076566
C 1.2301129841051774 -0.35223105668673027 -1.2816556067188558
C 1.9019178562596497 -1.5300317886680233 -1.6201016775858992
C 3.1191579135448086 -1.875934113229502 -1.0075445173180264
C 3.771842736960575 -3.1773043214826844 -1.392352900275532
C 3.70924172044442 -1.0018276345153396 -0.0685970763001297
C 3.0001236136671836 0.15115816249374658 0.3316070313002372
C 3.5045820236562455 1.0876167321963435 1.4081681653818776
C 4.456641930580158 2.1355556581514694 0.8506228945763301
C 1.785851126599511 0.4761664156227022 -0.301782320486708
N 4.881688382066682 -1.3889561429763404 0.609217293537649
C -1.9950646008706265 1.2264491456170676 -0.8406388649900117
C -3.1107059465115796 1.2765200470008409 0.0177160784227545
C -3.868060581849362 2.5842399641242046 0.10940892756306743
C -5.09442155859868 2.601811296169891 -0.791291967725081
H -4.685773092564515 -0.6088475630729946 2.2174183769513105
H -4.913365986878862 1.0174087867419208 1.897467194722448
H -3.0935206153853705 -2.3038966839738264 2.2447893453017453
H -4.264430909006594 -2.604866151259359 0.9255383533909585
H -2.6172206243299234 -3.2224897404676685 0.8120796117421994
H -1.1416542143070776 -2.0361895378063637 -0.5061866479988079
H -0.2989143493661067 -0.6906202357617273 -2.7655274120641664
H 0.05865169420589578 0.9871209170882077 -2.4406154613083655
H 1.4677683349669415 -2.1970406505962337 -2.3625573597814973
H 3.1402414120977755 -3.7614698186987 -2.0702123985135596
H 3.9497980972196443 -3.7932226452353994 -0.5048620973434491
H 4.720675007737575 -2.9872633627608907 -1.904129362266806
H 2.654298920727628 1.5910394711943494 1.885863809454786
H 3.9888980345908105 0.521608927739696 2.212061712535349
H 4.797895361547708 2.79961003752118 1.6510815150764324
H 3.966110627591307 2.749509602987966 0.08757592261444175
H 5.338639780910922 1.675714203763895 0.3931332218989097
H 1.2562516742605732 1.3822235520180997 -0.010851115336778277
H 5.477739247235195 -2.007818512674018 0.07134209536666596
H 5.407110161768654 -0.6110070904414623 0.9911824589953161
H -1.700279241004109 2.1229846853315877 -1.383321117591892
H -4.151290741524295 2.789477924932205 1.1476654121475804
H -3.207622590343162 3.4141959540917677 -0.1728443042892654
H -4.816999480602931 2.445627834727788 -1.8393571020553248
H -5.81027817253088 1.8212211172804427 -0.5147299873457671
H -5.603697374383994 3.567862607850526 -0.7161985190997194


--Link1--
%nprocshared=7
%mem=14GB
%Oldchk=QJENIOQDYXRGLF-UHFFFAOYSA-N_conf_0_0.chk
%Chk=QJENIOQDYXRGLF-UHFFFAOYSA-N_conf_0_1.chk
# freq B3LYP/6-31G** SCRF=(Solvent=water) volume NMR pop=NPA density=current Geom=AllCheck Guess=Read


--Link1--
%nprocshared=7
%mem=14GB
%Oldchk=QJENIOQDYXRGLF-UHFFFAOYSA-N_conf_0_1.chk
%Chk=QJENIOQDYXRGLF-UHFFFAOYSA-N_conf_0_2.chk
# TD(NStates=10, Root=1) B3LYP/6-31G** SCRF=(Solvent=water) volume pop=NPA density=current Geom=AllCheck Guess=Read



