%nprocshared=2
%mem=4GB
%Chk=XFNJVJPLKCPIBV-UHFFFAOYSA-N_conf_2_0.chk
# opt=CalcFc B3LYP/6-31G** SCRF=(Solvent=water) scf=xqc 

XFNJVJPLKCPIBV-UHFFFAOYSA-N_conf_2

0 1
N 1.8286539664788042 0.4090878413601636 0.4370131648584203
C 0.7391394884132312 0.8178753704214342 -0.44069442367006173
C -0.1732056965246094 -0.3511849527542315 -0.816858506694117
C -0.8965590009427924 -1.0241529373066174 0.3540146828924194
N -1.8259484051151798 -0.13855678025639803 1.0500991961516983
H 2.4037963336375996 -0.2919810674593478 -0.02911932495650505
H 2.440785611885698 1.2053887227974136 0.612681568651021
H 0.16318069384822914 1.6127555282027857 0.044116217994715184
H 1.1650364990217394 1.2449677600035558 -1.3556654303543025
H -0.9171815479245985 0.00737541102219984 -1.5399458590560957
H 0.41767025477688285 -1.1128642895803744 -1.3421022010972932
H -0.17785386950154763 -1.4309769769294929 1.0732550451180174
H -1.4673656278927543 -1.8758876474646284 -0.03255508804114953
H -2.4093648531076215 0.3534275856852307 0.37644734779693195
H -1.2907838470530648 0.5747264322582989 1.5457220406849064


--Link1--
%nprocshared=2
%mem=4GB
%Oldchk=XFNJVJPLKCPIBV-UHFFFAOYSA-N_conf_2_0.chk
%Chk=XFNJVJPLKCPIBV-UHFFFAOYSA-N_conf_2_1.chk
# freq B3LYP/6-31G** SCRF=(Solvent=water) volume NMR pop=NPA density=current Geom=AllCheck Guess=Read


--Link1--
%nprocshared=2
%mem=4GB
%Oldchk=XFNJVJPLKCPIBV-UHFFFAOYSA-N_conf_2_1.chk
%Chk=XFNJVJPLKCPIBV-UHFFFAOYSA-N_conf_2_2.chk
# TD(NStates=10, Root=1) B3LYP/6-31G** SCRF=(Solvent=water) volume pop=NPA density=current Geom=AllCheck Guess=Read



