%nprocshared=2
%mem=4GB
%Chk=XFNJVJPLKCPIBV-UHFFFAOYSA-N_conf_0_0.chk
# opt=CalcFc B3LYP/6-31G** SCRF=(Solvent=water) scf=xqc 

XFNJVJPLKCPIBV-UHFFFAOYSA-N_conf_0

0 1
N -2.3543964462384195 -0.057948784968458046 -0.2018538231331692
C -1.2232594977996274 -0.32407232039705536 0.6800370469110344
C 0.08390226691483499 0.1049931755355305 0.014800808526078832
C 1.2770058512458744 -0.18075096912903674 0.9264440790929321
N 2.532614091768157 0.22340654458246448 0.30103817895993173
H -2.4215477434146977 0.9424820302654389 -0.3858272692121058
H -3.22005047480557 -0.3187414184634719 0.2694526409854537
H -1.195084465276275 -1.3948926004865236 0.9086418918040812
H -1.3643944283199547 0.2149020909351319 1.6233552963005755
H 0.04622359009856226 1.1766904343945046 -0.2202304975886775
H 0.2080266881365213 -0.4297547062685138 -0.9359135689158952
H 1.1660522203519712 0.3568133865839392 1.8744372966558802
H 1.3274364770701323 -1.2493608928790567 1.1620200686576174
H 2.6476316379061022 -0.27560857045063325 -0.5812380059251336
H 2.4898402323623867 1.2118426007457808 0.05457250933922656


--Link1--
%nprocshared=2
%mem=4GB
%Oldchk=XFNJVJPLKCPIBV-UHFFFAOYSA-N_conf_0_0.chk
%Chk=XFNJVJPLKCPIBV-UHFFFAOYSA-N_conf_0_1.chk
# freq B3LYP/6-31G** SCRF=(Solvent=water) volume NMR pop=NPA density=current Geom=AllCheck Guess=Read


--Link1--
%nprocshared=2
%mem=4GB
%Oldchk=XFNJVJPLKCPIBV-UHFFFAOYSA-N_conf_0_1.chk
%Chk=XFNJVJPLKCPIBV-UHFFFAOYSA-N_conf_0_2.chk
# TD(NStates=10, Root=1) B3LYP/6-31G** SCRF=(Solvent=water) volume pop=NPA density=current Geom=AllCheck Guess=Read



