%nprocshared=6
%mem=12GB
%Chk=YQLZOAVZWJBZSY-UHFFFAOYSA-N_conf_4_0.chk
# opt=CalcFc B3LYP/6-31G** SCRF=(Solvent=water) scf=xqc 

YQLZOAVZWJBZSY-UHFFFAOYSA-N_conf_4

0 1
N -5.9990444380712695 0.9090285219052255 1.223455360490958
C -5.7955721495489385 0.11310213465172703 0.018826991088361795
C -4.491040236951925 -0.687313634527151 0.040982253495742985
C -3.236465605705054 0.19095590824023675 0.04058238173247781
C -1.9660796361039339 -0.6585960628299026 -0.041590866254236816
C -0.7109102413469611 0.21570518705398514 -0.04080735342467597
C 0.5586313317689485 -0.6334327028315708 -0.12350527455697731
C 1.8137658298008132 0.2408044057401341 -0.1229483590791984
C 3.083309946973221 -0.6084241787110165 -0.2055840765713708
C 4.339161201597613 0.2657413712255425 -0.2052491023731677
C 5.605214198699433 -0.586496004753191 -0.28773652901794594
N 6.80094318155137 0.24908918360165544 -0.2873225179707766
H -5.909561597680563 0.3140992333047563 2.0462394539735036
H -5.266767635689789 1.6126484592358474 1.3029152374544277
H -5.8200580839995855 0.7718026548889295 -0.8561253033393066
H -6.637239874483897 -0.5809115357074206 -0.08134685116523116
H -4.474361551731773 -1.3365833786837058 -0.8433825905296272
H -4.477677823166557 -1.3497546593981646 0.9156868876750223
H -3.271813707567312 0.8808836713353649 -0.8111805006894972
H -3.2023034813660054 0.799681376859747 0.9513099175220213
H -1.9888581031393555 -1.2667932827663884 -0.9540375467293281
H -1.9321422881673809 -1.351170339315539 0.8082331514430554
H -0.7454420530613886 0.9085926938753497 -0.8903375989197433
H -0.6872663304380572 0.8237508393476084 0.871721463253186
H 0.5931388454657627 -1.3262312629316593 0.7261022812290177
H 0.5350036908485715 -1.241583734119404 -1.0359677184866902
H 1.8373922114239452 0.8489913034871657 0.7894861362107768
H 1.779257238766732 0.9335532383491798 -0.9725922105103185
H 3.1178081917358194 -1.3010631705806828 0.6441772416611375
H 3.059566502761587 -1.2166866904367992 -1.1179908478096738
H 4.359928885402203 0.8746897458632356 0.7073545890717612
H 4.301775934948972 0.9589016066731698 -1.055087732021092
H 5.654236189703481 -1.2764361259790322 0.5616125815344266
H 5.596073260490768 -1.1923608372023415 -1.200237828798175
H 6.81536099333324 0.8242070370309077 0.5543082255640045
H 6.762037202947415 0.9012310724883565 -1.069963345152702


--Link1--
%nprocshared=6
%mem=12GB
%Oldchk=YQLZOAVZWJBZSY-UHFFFAOYSA-N_conf_4_0.chk
%Chk=YQLZOAVZWJBZSY-UHFFFAOYSA-N_conf_4_1.chk
# freq B3LYP/6-31G** SCRF=(Solvent=water) volume NMR pop=NPA density=current Geom=AllCheck Guess=Read


--Link1--
%nprocshared=6
%mem=12GB
%Oldchk=YQLZOAVZWJBZSY-UHFFFAOYSA-N_conf_4_1.chk
%Chk=YQLZOAVZWJBZSY-UHFFFAOYSA-N_conf_4_2.chk
# TD(NStates=10, Root=1) B3LYP/6-31G** SCRF=(Solvent=water) volume pop=NPA density=current Geom=AllCheck Guess=Read



