%nprocshared=6
%mem=12GB
%Chk=YQLZOAVZWJBZSY-UHFFFAOYSA-N_conf_1_0.chk
# opt=CalcFc B3LYP/6-31G** SCRF=(Solvent=water) scf=xqc 

YQLZOAVZWJBZSY-UHFFFAOYSA-N_conf_1

0 1
N -5.369670937052751 0.2686061131706431 0.015632846592000645
C -3.9251277265592104 0.3700071736460718 -0.16550401703088358
C -3.2935824498077175 -1.0190856360370824 -0.15338906527634072
C -1.760214600532891 -1.0125176086164382 -0.1828187865666429
C -1.1415393317078353 -0.4334361532354949 -1.4602333173893096
C -0.7534654680317647 1.0464816889686126 -1.3907467836459821
C 0.31885209437757794 1.4319008707975993 -0.3633094686208725
C 1.689748507118793 0.7809688234931222 -0.5862031633752367
C 1.9195123676772083 -0.4491564420137674 0.299279800083297
C 3.2863211585639047 -1.1093763640765686 0.07411049250480571
C 4.388206661620308 -0.6572693636932011 1.0378284204093986
N 4.754822273226231 0.7451171129009191 0.9048440553462518
H -5.573765147322102 -0.162036849250074 0.9166246764101005
H -5.77228368622279 1.2043160011361946 0.049268270375189424
H -3.501094838278073 0.9904858914705352 0.6310994156628906
H -3.7372625582199563 0.8648732982568861 -1.1223672981017976
H -3.6706008885647834 -1.604772577440203 -1.0016732129754484
H -3.605623063485417 -1.5525803041341144 0.7542655090361624
H -1.4396139416633789 -2.059898940895386 -0.10618790890407957
H -1.376211076321838 -0.5150380589984487 0.7129779105522743
H -0.247371328321939 -1.0142522536960157 -1.714409232139331
H -1.8306858882497177 -0.5791400841644417 -2.30135306199122
H -0.40109828444416845 1.3496949278398291 -2.385268489707948
H -1.642977844728874 1.6532910263382916 -1.1942603741371
H -0.036413240838314216 1.2590946291931615 0.6580791899470897
H 0.4532527020001242 2.518726896580962 -0.4481786170443932
H 1.822702062826776 0.5205646142893691 -1.6428467893992107
H 2.4537678519219774 1.5305981894711427 -0.35650719479573545
H 1.1511638437440106 -1.194860610953406 0.07241876318177091
H 1.792518821260083 -0.1871972033821341 1.3563833333153492
H 3.612246452240295 -0.979225242661314 -0.9650613267695284
H 3.1622413571646812 -2.1904849823105987 0.22034619790290497
H 5.2830418893139575 -1.262797102879782 0.8555940030514506
H 4.084059245660034 -0.8510484617718808 2.0724579192419705
H 4.928097236877549 0.9644585612019367 -0.07518080904435796
H 3.978047774760279 1.3349884214566987 1.1975075503178927


--Link1--
%nprocshared=6
%mem=12GB
%Oldchk=YQLZOAVZWJBZSY-UHFFFAOYSA-N_conf_1_0.chk
%Chk=YQLZOAVZWJBZSY-UHFFFAOYSA-N_conf_1_1.chk
# freq B3LYP/6-31G** SCRF=(Solvent=water) volume NMR pop=NPA density=current Geom=AllCheck Guess=Read


--Link1--
%nprocshared=6
%mem=12GB
%Oldchk=YQLZOAVZWJBZSY-UHFFFAOYSA-N_conf_1_1.chk
%Chk=YQLZOAVZWJBZSY-UHFFFAOYSA-N_conf_1_2.chk
# TD(NStates=10, Root=1) B3LYP/6-31G** SCRF=(Solvent=water) volume pop=NPA density=current Geom=AllCheck Guess=Read



