%nprocshared=6
%mem=12GB
%Chk=YQLZOAVZWJBZSY-UHFFFAOYSA-N_conf_2_0.chk
# opt=CalcFc B3LYP/6-31G** SCRF=(Solvent=water) scf=xqc 

YQLZOAVZWJBZSY-UHFFFAOYSA-N_conf_2

0 1
N -5.733777066730257 -0.06799243734803286 0.3294321528185882
C -4.507851303388139 -0.5897503734684562 0.9221325961028091
C -3.283280894403107 -0.4297884663135605 0.01605282070116483
C -2.888325038624636 1.0314673396343805 -0.22112170971013373
C -1.6712106732782224 1.1909115934754093 -1.1386014105409439
C -0.37007399536357755 0.6674449373191615 -0.5243017728616979
C 0.8264868900411567 0.9610849748337961 -1.4337011270098599
C 2.1704161477917476 0.5506414466405389 -0.8208824510109193
C 2.3021072711420723 -0.9594460128409081 -0.6118416318849615
C 3.7256447754110367 -1.4334721331116012 -0.2908312193461872
C 4.240368128663239 -1.0654686146476087 1.1027825140830336
N 4.590749665341523 0.34307581531456416 1.2212373726530372
H -5.8595505606556335 -0.46422996104150926 -0.6011769764381355
H -5.654804023899619 0.9391428902984128 0.19874342410147333
H -4.655948830480408 -1.6544419890133135 1.133580733367226
H -4.333634344453016 -0.09531815738323254 1.8840304567314095
H -2.451331629330595 -0.9633874693189913 0.48920329972782595
H -3.467636662620477 -0.9238272150785213 -0.9460732302269391
H -3.7244111247251563 1.567136642170923 -0.6852345426856631
H -2.6913371169998994 1.5226009005334293 0.739455092816473
H -1.8606824072592842 0.6851009763335274 -2.093193968048517
H -1.5546080850456307 2.258213233044847 -1.3647804587949626
H -0.21112948431661407 1.135825114293181 0.4542653873552422
H -0.44857597179637093 -0.41203748016358044 -0.3626096702368519
H 0.6917304119929273 0.4558610134229083 -2.3978736470739737
H 0.8625439921477899 2.037264386606669 -1.6440528991759187
H 2.2962949961077492 1.0769940165448164 0.13102355854755612
H 2.9689611331159735 0.8948516826630473 -1.48926115949072
H 1.6255346633912517 -1.290529130869848 0.18440126532418435
H 1.9816408541172 -1.4699299146271951 -1.5289078734743304
H 4.422003568614201 -1.079081916586559 -1.0611339203370191
H 3.7282546763131594 -2.529107317195036 -0.36120538690176335
H 3.4915050296403596 -1.320018147613693 1.8603704146543585
H 5.134374885306744 -1.6618673261295647 1.31753263512387
H 5.311020375379925 0.5767097299536912 0.5391420323519254
H 4.9985317488513905 0.5153673696679026 2.139161393575546


--Link1--
%nprocshared=6
%mem=12GB
%Oldchk=YQLZOAVZWJBZSY-UHFFFAOYSA-N_conf_2_0.chk
%Chk=YQLZOAVZWJBZSY-UHFFFAOYSA-N_conf_2_1.chk
# freq B3LYP/6-31G** SCRF=(Solvent=water) volume NMR pop=NPA density=current Geom=AllCheck Guess=Read


--Link1--
%nprocshared=6
%mem=12GB
%Oldchk=YQLZOAVZWJBZSY-UHFFFAOYSA-N_conf_2_1.chk
%Chk=YQLZOAVZWJBZSY-UHFFFAOYSA-N_conf_2_2.chk
# TD(NStates=10, Root=1) B3LYP/6-31G** SCRF=(Solvent=water) volume pop=NPA density=current Geom=AllCheck Guess=Read



