%nprocshared=6
%mem=12GB
%Chk=YQLZOAVZWJBZSY-UHFFFAOYSA-N_conf_0_0.chk
# opt=CalcFc B3LYP/6-31G** SCRF=(Solvent=water) scf=xqc 

YQLZOAVZWJBZSY-UHFFFAOYSA-N_conf_0

0 1
N 3.588543351902577 0.35532912764370606 2.521053022369917
C 3.388674480346593 0.34585706254141546 1.0750787919394422
C 3.206784051995834 -1.0829470893543736 0.5579278771848315
C 3.0003607285978746 -1.1454962960495012 -0.9600288910234223
C 1.5368424053193912 -1.2482267201892374 -1.4041310874724733
C 0.6840488168276464 -0.03247629923082923 -1.041208870945613
C -0.7176183846407411 -0.13819499913918126 -1.6481137343571266
C -1.5820075777123024 1.1020319603039046 -1.4009994273172535
C -1.847673871997521 1.4464294955081243 0.06820376094478568
C -2.4925334174457103 0.33418446747023334 0.9041131041507215
C -3.837619722337259 -0.17777944874118007 0.38475042540077314
N -4.837328192678358 0.8810690258419422 0.3243868418597677
H 2.7894495427867403 -0.08225123923778489 2.978307281513945
H 4.395898136090096 -0.22026876278410892 2.7578801624348923
H 4.258188565747024 0.8104229759748105 0.5973369560271942
H 2.5217437078970733 0.9679572597695515 0.8389623412088594
H 2.38011955247378 -1.582677868035603 1.077501144873571
H 4.11496941001339 -1.651025990912549 0.7999817461725306
H 3.509068450698978 -2.044922278545074 -1.3307563688664672
H 3.4844133854422608 -0.29485940279180367 -1.4543506554928878
H 1.0880747137697353 -2.1515617076289013 -0.972564026435616
H 1.5244487725863969 -1.3841564949676723 -2.4929143560063687
H 0.6017369453637639 0.03791845393698631 0.04762558814100123
H 1.1716021075484695 0.8814783710245733 -1.400075113556152
H -0.6287949364380885 -0.27663981604410476 -2.733057179060217
H -1.22198407527703 -1.032493884128244 -1.2647898371704238
H -2.537817551609517 0.9704332173477613 -1.9218909587113606
H -1.1002429506844373 1.9672953960015593 -1.8739059357631895
H -2.483253185155349 2.339996728501961 0.10258493326134979
H -0.905950948307812 1.7388652018352084 0.5481534921323028
H -2.623592721632525 0.7080825511650797 1.9280684830609964
H -1.80106547451615 -0.513024288090213 0.9824813404589025
H -3.722731646651213 -0.6252769734947061 -0.60736152760443
H -4.198561039834836 -0.9685911999496575 1.0519616136969472
H -5.73534160047902 0.4845358088939568 0.05092403433367766
H -4.970849828005945 1.280983655553891 1.2522645573505742


--Link1--
%nprocshared=6
%mem=12GB
%Oldchk=YQLZOAVZWJBZSY-UHFFFAOYSA-N_conf_0_0.chk
%Chk=YQLZOAVZWJBZSY-UHFFFAOYSA-N_conf_0_1.chk
# freq B3LYP/6-31G** SCRF=(Solvent=water) volume NMR pop=NPA density=current Geom=AllCheck Guess=Read


--Link1--
%nprocshared=6
%mem=12GB
%Oldchk=YQLZOAVZWJBZSY-UHFFFAOYSA-N_conf_0_1.chk
%Chk=YQLZOAVZWJBZSY-UHFFFAOYSA-N_conf_0_2.chk
# TD(NStates=10, Root=1) B3LYP/6-31G** SCRF=(Solvent=water) volume pop=NPA density=current Geom=AllCheck Guess=Read



