%nprocshared=2
%mem=4GB
%Chk=BXI4XYDDJVHDL-UHFFFAOYSA-N_conf_0_0.chk
# opt=CalcFc B3LYP/6-31G** SCRF=(Solvent=water) scf=xqc 

BXI4XYDDJVHDL-UHFFFAOYSA-N_conf_0

0 1
N -1.84276215637619 -1.2662412386590771 0.2940145054323695
C -0.5699893806702495 -0.666530083984613 0.166871478288
C 0.5768566384415573 -1.4619964150008866 0.10067736398986135
C 1.831775612057922 -0.8720217431978227 -0.059882948331950514
C 1.9336233531341886 0.5123568561232476 -0.1785161080403726
Cl 3.4850602463408835 1.2417561897294036 -0.33567233945325753
C 0.7904306018783991 1.3104387422188806 -0.1852924122013346
C -0.47100360969044236 0.7174119087891165 -0.09783862113119192
N -1.634784625452843 1.5203341280343607 -0.06886251418761043
H -2.474372964928615 -0.6254660691867044 0.7725132170754808
H -1.8042261012340464 -2.160437794639694 0.7738858222624228
H 0.5045671436524732 -2.5414022653895483 0.19874423899808744
H 2.7218069110771688 -1.4947654230785803 -0.08115872367448704
H 0.8830252632917492 2.387465855155669 -0.28436584768428175
H -2.41850648313577 0.9971293135885311 -0.457068465348927
H -1.5115004483863952 2.401968039497613 -0.5580486459928189


--Link1--
%nprocshared=2
%mem=4GB
%Oldchk=BXI4XYDDJVHDL-UHFFFAOYSA-N_conf_0_0.chk
%Chk=BXI4XYDDJVHDL-UHFFFAOYSA-N_conf_0_1.chk
# freq B3LYP/6-31G** SCRF=(Solvent=water) volume NMR pop=NPA density=current Geom=AllCheck Guess=Read


--Link1--
%nprocshared=2
%mem=4GB
%Oldchk=BXI4XYDDJVHDL-UHFFFAOYSA-N_conf_0_1.chk
%Chk=BXI4XYDDJVHDL-UHFFFAOYSA-N_conf_0_2.chk
# TD(NStates=10, Root=1) B3LYP/6-31G** SCRF=(Solvent=water) volume pop=NPA density=current Geom=AllCheck Guess=Read



