%nprocshared=3
%mem=6GB
%Chk=WIOZZYWDYUOMAY-UHFFFAOYSA-N_conf_4_0.chk
# opt=CalcFc B3LYP/6-31G** SCRF=(Solvent=water) scf=xqc 

WIOZZYWDYUOMAY-UHFFFAOYSA-N_conf_4

0 1
O 3.7701409170276308 0.12514071405868252 0.04009799036407324
C 2.7805562874426695 0.6369432265944228 0.5346499549270978
C 1.367640845920878 0.25702600032149986 0.26438558668259565
C 0.3237029525817661 1.1126655261295004 0.66000081648044
C -1.0177680592579346 0.8096005633235865 0.3862341089455125
N -2.0057171306638866 1.6445256268667543 0.9390662470167984
C -1.310912114721123 -0.42612100379138834 -0.21938677633476053
C -2.6893346986473645 -0.9084554897323196 -0.5009642469444925
O -3.6270791919172867 0.06018812828009713 -0.4754148959286116
O -2.994640028863646 -2.051895986976981 -0.7904234340182723
C -0.26602978472263283 -1.2851632839345615 -0.606239376040942
C 1.0781867539410832 -0.9392538954365249 -0.4179472534754145
N 2.0566972069005565 -1.9053663299409267 -0.7082347838992396
O 2.8953354134706304 1.651622769410163 1.411817527380776
H 0.5557525589599582 2.028687015916776 1.1994531788303209
H -1.750607008040481 2.6250255213639897 0.9976916216417886
H -2.916346490130578 1.5038093366607574 0.4913283151542884
H -4.450240945822624 -0.4268742983102598 -0.6967974182157101
H -0.5087665460558495 -2.248339560900317 -1.0537075780537806
H 3.004311847944738 -1.5179857478109764 -0.7639321480362818
H 1.8417351875515144 -2.5186408500834836 -1.487650699242898
H 3.8633820270984747 1.7728620179912111 1.507159858687788


--Link1--
%nprocshared=3
%mem=6GB
%Oldchk=WIOZZYWDYUOMAY-UHFFFAOYSA-N_conf_4_0.chk
%Chk=WIOZZYWDYUOMAY-UHFFFAOYSA-N_conf_4_1.chk
# freq B3LYP/6-31G** SCRF=(Solvent=water) volume NMR pop=NPA density=current Geom=AllCheck Guess=Read


--Link1--
%nprocshared=3
%mem=6GB
%Oldchk=WIOZZYWDYUOMAY-UHFFFAOYSA-N_conf_4_1.chk
%Chk=WIOZZYWDYUOMAY-UHFFFAOYSA-N_conf_4_2.chk
# TD(NStates=10, Root=1) B3LYP/6-31G** SCRF=(Solvent=water) volume pop=NPA density=current Geom=AllCheck Guess=Read



