%nprocshared=3
%mem=6GB
%Chk=WIOZZYWDYUOMAY-UHFFFAOYSA-N_conf_2_0.chk
# opt=CalcFc B3LYP/6-31G** SCRF=(Solvent=water) scf=xqc 

WIOZZYWDYUOMAY-UHFFFAOYSA-N_conf_2

0 1
O 2.936590280089781 1.4267476873338787 -1.7877074558506572
C 2.671152027090199 0.6651404480015931 -0.8744981910076934
C 1.3022454154088146 0.31595861939230724 -0.4095818681235126
C 0.24983427967036925 0.6596972007639481 -1.2777190858492717
C -1.0843248188908796 0.3657700892861047 -0.9684429124829199
N -2.085436391430219 0.8590603681055832 -1.8225890128095712
C -1.366378945425491 -0.19948154117369626 0.2890880570136714
C -2.7743150436171167 -0.4777872456182975 0.6814804773129958
O -2.910400292405826 -0.7645303800454408 1.9896974268395324
O -3.742559189265136 -0.4684597183549289 -0.058936367503776566
C -0.3158858475810543 -0.5353397580972635 1.1620720050914273
C 1.025637848355345 -0.3271064865781781 0.8109399561017346
N 2.0051517297967276 -0.5574197594917154 1.7939331762686648
O 3.655683854829855 0.006334513370607603 -0.2303253591479101
H 0.4773899213546225 1.177149438951152 -2.2090194438445727
H -3.000948719685558 0.4246663456525982 -1.6667768552446978
H -1.8359921591914938 0.8966621209324233 -2.805527973667473
H -3.874760129528157 -0.8991706080672082 2.102766998363953
H -0.5437367732000253 -0.9589781063514877 2.1380670643842348
H 1.8012469392673607 -1.3240337359282084 2.426881893868298
H 2.943026586076127 -0.625307288427512 1.387364029761076
H 4.466779428282058 0.340427796343401 -0.6711665594735831


--Link1--
%nprocshared=3
%mem=6GB
%Oldchk=WIOZZYWDYUOMAY-UHFFFAOYSA-N_conf_2_0.chk
%Chk=WIOZZYWDYUOMAY-UHFFFAOYSA-N_conf_2_1.chk
# freq B3LYP/6-31G** SCRF=(Solvent=water) volume NMR pop=NPA density=current Geom=AllCheck Guess=Read


--Link1--
%nprocshared=3
%mem=6GB
%Oldchk=WIOZZYWDYUOMAY-UHFFFAOYSA-N_conf_2_1.chk
%Chk=WIOZZYWDYUOMAY-UHFFFAOYSA-N_conf_2_2.chk
# TD(NStates=10, Root=1) B3LYP/6-31G** SCRF=(Solvent=water) volume pop=NPA density=current Geom=AllCheck Guess=Read



