%nprocshared=3
%mem=6GB
%Chk=KIDHWZJUCRJVML-UHFFFAOYSA-N_conf_2_0.chk
# opt=CalcFc B3LYP/6-31G** SCRF=(Solvent=water) scf=xqc 

KIDHWZJUCRJVML-UHFFFAOYSA-N_conf_2

0 1
N -2.945775095867956 0.05094747979957686 0.3658693013063592
C -1.5407113664848289 -0.3125641794532113 0.5141043399519369
C -0.7216713402879185 0.17682433408062515 -0.6805437737158159
C 0.7465555075358472 -0.2579903083238649 -0.6255494261446292
C 1.5208263641478432 0.37742066996803797 0.5295561252584658
N 2.9296421664199372 0.0016719015677691769 0.48087407088735856
H -3.0313762770274666 1.062351365976398 0.2700789446259278
H -3.3145349758983738 -0.3444471288932632 -0.49841200403705466
H -1.463451232221319 -1.4010476443550148 0.6073117286695477
H -1.1691856800239009 0.12413518326280523 1.4459513307549796
H -0.7766324590528666 1.2705048355220054 -0.7507669193634677
H -1.1582599184122435 -0.2205711630457694 -1.6059890432003319
H 1.2188817527162974 0.02284157802543043 -1.5758252134227524
H 0.8015629766886619 -1.351820862629354 -0.5577384750668203
H 1.4426525917719735 1.4688862132062899 0.48433210310529873
H 1.1131808610965885 0.05853452814618312 1.493513231912355
H 3.016431797773144 -1.0136070819554186 0.5143102879782396
H 3.3318643271266484 0.2879302791007959 -0.41107660949955754


--Link1--
%nprocshared=3
%mem=6GB
%Oldchk=KIDHWZJUCRJVML-UHFFFAOYSA-N_conf_2_0.chk
%Chk=KIDHWZJUCRJVML-UHFFFAOYSA-N_conf_2_1.chk
# freq B3LYP/6-31G** SCRF=(Solvent=water) volume NMR pop=NPA density=current Geom=AllCheck Guess=Read


--Link1--
%nprocshared=3
%mem=6GB
%Oldchk=KIDHWZJUCRJVML-UHFFFAOYSA-N_conf_2_1.chk
%Chk=KIDHWZJUCRJVML-UHFFFAOYSA-N_conf_2_2.chk
# TD(NStates=10, Root=1) B3LYP/6-31G** SCRF=(Solvent=water) volume pop=NPA density=current Geom=AllCheck Guess=Read



