%nprocshared=3
%mem=6GB
%Chk=SSJXIUAHEKJCMH-OLQVQODUSA-N_conf_0_0.chk
# opt=CalcFc B3LYP/6-31G** SCRF=(Solvent=water) scf=xqc 

SSJXIUAHEKJCMH-OLQVQODUSA-N_conf_0

0 1
N 2.1803939040016904 -0.5877641762602304 -1.0030166275071803
C 0.7331655064259719 -0.38124728282923254 -0.8235700577381093
C 0.4304739577641721 1.0297159689259614 -0.22265350400306755
N 1.5268066798613091 1.5203073289319384 0.638867960746136
C -0.894888591479991 1.0699506170765267 0.5592647958939954
C -1.8931434970264909 0.05102513395314849 0.025220218538183726
C -1.3666128044704478 -1.3788961880219914 0.172971929091069
C 0.1585297499774552 -1.4890943702850727 0.06100977851891584
H 2.6268971834135937 -0.1847431200725646 -0.1714426995099835
H 2.494278015082013 0.04869507279049902 -1.7375183914990122
H 0.26561661542369186 -0.4515795959340476 -1.8141691443932484
H 0.364134574473503 1.7287903191637675 -1.0663124098767607
H 1.2904609493980324 2.4536411692219757 0.9766065820292412
H 1.5800512472537298 0.9333851951885248 1.4725145073073536
H -1.3208695894939284 2.0792518303237943 0.5071796868203847
H -0.7270753189301138 0.861487854252649 1.624594967459658
H -2.0952461143041066 0.26079939639683136 -1.0326362345656808
H -2.8504475780503418 0.14493978206616243 0.550285370794085
H -1.8404546652872888 -2.006595320490861 -0.5915315323035695
H -1.677187152753136 -1.7907649756151143 1.1409360208259194
H 0.5981837778611399 -1.4311838830665389 1.0657158327946152
H 0.41693315085954086 -2.4801207557161717 -0.3323170494231058


--Link1--
%nprocshared=3
%mem=6GB
%Oldchk=SSJXIUAHEKJCMH-OLQVQODUSA-N_conf_0_0.chk
%Chk=SSJXIUAHEKJCMH-OLQVQODUSA-N_conf_0_1.chk
# freq B3LYP/6-31G** SCRF=(Solvent=water) volume NMR pop=NPA density=current Geom=AllCheck Guess=Read


--Link1--
%nprocshared=3
%mem=6GB
%Oldchk=SSJXIUAHEKJCMH-OLQVQODUSA-N_conf_0_1.chk
%Chk=SSJXIUAHEKJCMH-OLQVQODUSA-N_conf_0_2.chk
# TD(NStates=10, Root=1) B3LYP/6-31G** SCRF=(Solvent=water) volume pop=NPA density=current Geom=AllCheck Guess=Read



