%nprocshared=3
%mem=6GB
%Chk=GKXVJHDEWHKBFH-UHFFFAOYSA-N_conf_2_0.chk
# opt=CalcFc B3LYP/6-31G** SCRF=(Solvent=water) scf=xqc 

GKXVJHDEWHKBFH-UHFFFAOYSA-N_conf_2

0 1
N -1.4581416551098256 -2.08047425573493 -0.05907052384016428
C -1.0701129282249118 -1.2161837826993145 1.0486072348143265
C 0.1784622981970029 -0.42917591451380327 0.7198359663282023
C 0.14982491258048403 0.7408091848263187 -0.07552051350181657
C -1.1294596851889096 1.2963102213034758 -0.6591523911970598
N -1.6300470440264343 0.464044117186764 -1.750974789153233
C 1.360247202064837 1.4022811989534352 -0.35807489746813886
C 2.5747200775461634 0.9229031326718037 0.1328740740849747
C 2.602639095750149 -0.23203470692175882 0.9055771039098325
C 1.4156453933302102 -0.9052590256214156 1.1916613103236218
H -1.5765243687167356 -1.4671739065970522 -0.8770972586451348
H -2.3838659544490373 -2.457723317324491 0.12593754250173833
H -0.9039566704146453 -1.8324086967118978 1.9399313676915881
H -1.88870860867258 -0.5359133725898985 1.3071433862861628
H -0.9599868672275981 2.311322628827797 -1.038150957469637
H -1.8901433379657866 1.3908093248771989 0.12286806479765405
H -2.3776139790376605 0.9647537827283215 -2.228559967283043
H -0.8808825149683962 0.3547506081499133 -2.436205091996216
H 1.3645700992974392 2.2999455817416314 -0.9726710552790254
H 3.499224489278878 1.445527899484109 -0.09699373493040386
H 3.5477974691189043 -0.6169970591608914 1.2784328608066728
H 1.456312576839385 -1.8201136428761127 1.779602269218969


--Link1--
%nprocshared=3
%mem=6GB
%Oldchk=GKXVJHDEWHKBFH-UHFFFAOYSA-N_conf_2_0.chk
%Chk=GKXVJHDEWHKBFH-UHFFFAOYSA-N_conf_2_1.chk
# freq B3LYP/6-31G** SCRF=(Solvent=water) volume NMR pop=NPA density=current Geom=AllCheck Guess=Read


--Link1--
%nprocshared=3
%mem=6GB
%Oldchk=GKXVJHDEWHKBFH-UHFFFAOYSA-N_conf_2_1.chk
%Chk=GKXVJHDEWHKBFH-UHFFFAOYSA-N_conf_2_2.chk
# TD(NStates=10, Root=1) B3LYP/6-31G** SCRF=(Solvent=water) volume pop=NPA density=current Geom=AllCheck Guess=Read



