%nprocshared=3
%mem=6GB
%Chk=GKXVJHDEWHKBFH-UHFFFAOYSA-N_conf_1_0.chk
# opt=CalcFc B3LYP/6-31G** SCRF=(Solvent=water) scf=xqc 

GKXVJHDEWHKBFH-UHFFFAOYSA-N_conf_1

0 1
N 2.317457989902794 -1.4019051998614247 -0.5576615191836741
C 1.6099695830942191 -0.9459820307841602 0.630578228160027
C 0.7136766537403977 0.230922921746638 0.3200516801087516
C -0.651633221968349 0.09245990327283171 -0.02600497276872979
C -1.3278476920535016 -1.2617126731574944 -0.09828247043177946
N -2.394187962207441 -1.324582489739448 -1.0972464986800627
C -1.4107298140744766 1.2611006656729131 -0.23959368280230703
C -0.8314498115664876 2.5286216446300025 -0.17475410774656008
C 0.5201110556956051 2.6570028409042767 0.11605658971262789
C 1.2850945373134206 1.5185083257452248 0.36168608537782576
H 1.6446655752749908 -1.6164545619186599 -1.2904753030904115
H 2.8114411338384837 -2.2656677017794196 -0.34626425481504797
H 2.342396233615613 -0.6563598812889222 1.3938460122844336
H 1.037870969221182 -1.7669703438666102 1.0751203984339357
H -1.7388139038522918 -1.5014732538279865 0.8883183442500345
H -0.6057612229656361 -2.0392817614081435 -0.3628819729939239
H -2.7362504808591663 -2.2810076169275506 -1.1603181721644575
H -1.9975290011246083 -1.0980263663521326 -2.008615105657619
H -2.4734931101338087 1.1851929533032157 -0.4654361004268338
H -1.437957484653952 3.411680949968091 -0.35579348472500577
H 0.9794149289608414 3.64062445512694 0.15696355584129626
H 2.3435550448020606 1.6333092205419373 0.5890142550291735


--Link1--
%nprocshared=3
%mem=6GB
%Oldchk=GKXVJHDEWHKBFH-UHFFFAOYSA-N_conf_1_0.chk
%Chk=GKXVJHDEWHKBFH-UHFFFAOYSA-N_conf_1_1.chk
# freq B3LYP/6-31G** SCRF=(Solvent=water) volume NMR pop=NPA density=current Geom=AllCheck Guess=Read


--Link1--
%nprocshared=3
%mem=6GB
%Oldchk=GKXVJHDEWHKBFH-UHFFFAOYSA-N_conf_1_1.chk
%Chk=GKXVJHDEWHKBFH-UHFFFAOYSA-N_conf_1_2.chk
# TD(NStates=10, Root=1) B3LYP/6-31G** SCRF=(Solvent=water) volume pop=NPA density=current Geom=AllCheck Guess=Read



