%nprocshared=3
%mem=6GB
%Chk=GKXVJHDEWHKBFH-UHFFFAOYSA-N_conf_0_0.chk
# opt=CalcFc B3LYP/6-31G** SCRF=(Solvent=water) scf=xqc 

GKXVJHDEWHKBFH-UHFFFAOYSA-N_conf_0

0 1
N -2.1535657135412376 -1.804475005421319 -0.07112784452382863
C -1.0546758942046959 -1.3616823988110702 -0.9211071859031035
C -0.5227362800484802 -0.01812736602453032 -0.4776904919210308
C 0.5151024249734936 0.12184165619086167 0.47073849799839557
C 1.2328229535002333 -1.0589372650046105 1.0834027547164542
N 2.3927637919033478 -1.4457391577609096 0.2890416157161056
C 0.9365323799119691 1.4156189317042924 0.8351135199812576
C 0.3336582316364939 2.5501183284995452 0.293361950086883
C -0.6988825134854356 2.4124818276437354 -0.6260885418223735
C -1.1246479850047413 1.1404524257363924 -1.0064887394441655
H -1.8262793124977115 -1.8548494407647664 0.8922393307153632
H -2.8777507177076016 -1.0871970918558918 -0.0734116850184388
H -1.408005061549563 -1.2958783704683674 -1.9572390827492607
H -0.2634635116268905 -2.117464596779879 -0.9340951758952225
H 0.5601226605281663 -1.9134757673869394 1.2043613035330885
H 1.5626502181390847 -0.805353364373409 2.098119960839219
H 2.085741009940532 -1.670734468358661 -0.6558619893174461
H 3.004621708008108 -0.6366929059105353 0.1889917770471949
H 1.7452153894887343 1.5434766284177124 1.5527804265343537
H 0.6706759171445159 3.5397935668641836 0.5903705244862784
H -1.1736217497614339 3.294176387007029 -1.0485689423121372
H -1.9362779457468013 1.0526474468571387 -1.7268419827475692


--Link1--
%nprocshared=3
%mem=6GB
%Oldchk=GKXVJHDEWHKBFH-UHFFFAOYSA-N_conf_0_0.chk
%Chk=GKXVJHDEWHKBFH-UHFFFAOYSA-N_conf_0_1.chk
# freq B3LYP/6-31G** SCRF=(Solvent=water) volume NMR pop=NPA density=current Geom=AllCheck Guess=Read


--Link1--
%nprocshared=3
%mem=6GB
%Oldchk=GKXVJHDEWHKBFH-UHFFFAOYSA-N_conf_0_1.chk
%Chk=GKXVJHDEWHKBFH-UHFFFAOYSA-N_conf_0_2.chk
# TD(NStates=10, Root=1) B3LYP/6-31G** SCRF=(Solvent=water) volume pop=NPA density=current Geom=AllCheck Guess=Read



