%nprocshared=4
%mem=8GB
%Chk=NAQMVNRVTILPCV-UHFFFAOYSA-N_conf_1_0.chk
# opt=CalcFc B3LYP/6-31G** SCRF=(Solvent=water) scf=xqc 

NAQMVNRVTILPCV-UHFFFAOYSA-N_conf_1

0 1
N -3.125736801854798 -0.08730487244379886 1.4630486478289
C -2.1705296427151 -0.3092482134482196 0.3835131846700517
C -1.581816671269226 1.0223044452491425 -0.08052841901632238
C -0.649006967894805 0.8852199394698325 -1.2885478346248542
C 0.579356625761072 -0.008369520546728541 -1.0850189208660719
C 1.4945992622813125 0.46833855552336195 0.04700026934285339
C 2.8232927740308043 -0.2901996025772352 0.11263123098805464
N 2.6583747936839477 -1.7031661092041426 0.43224455091054764
H -2.6566146309946768 0.3489046025810794 2.255732937480296
H -3.477238500589693 -0.9842505627507239 1.7956606266060897
H -2.6807351399641024 -0.8062373809651852 -0.4482650386642052
H -1.382032336751691 -0.978033387193474 0.7425826362451156
H -2.398604951103544 1.6999199444530941 -0.3623641709295323
H -1.0522589916304748 1.5097709642250003 0.7468145273898134
H -0.312729191774521 1.887873486895072 -1.5810219240199737
H -1.2238186398933872 0.49488492671384504 -2.1377548616872866
H 0.25771417426226506 -1.040028247952339 -0.9062792040780591
H 1.1475118219337166 -0.02031542256316981 -2.0236808779164885
H 0.9798806155707507 0.37778902201122955 1.0108714806329453
H 1.7159678387491017 1.5334766528935029 -0.09431959645954399
H 3.3600385792355345 -0.19624380699398064 -0.837679421362231
H 3.4559508377006587 0.16585477685396133 0.8819526566922342
H 2.1354788292788736 -2.169034045336406 -0.30735760135765544
H 2.1029563139479635 -1.8019061448937437 1.2807651221952645


--Link1--
%nprocshared=4
%mem=8GB
%Oldchk=NAQMVNRVTILPCV-UHFFFAOYSA-N_conf_1_0.chk
%Chk=NAQMVNRVTILPCV-UHFFFAOYSA-N_conf_1_1.chk
# freq B3LYP/6-31G** SCRF=(Solvent=water) volume NMR pop=NPA density=current Geom=AllCheck Guess=Read


--Link1--
%nprocshared=4
%mem=8GB
%Oldchk=NAQMVNRVTILPCV-UHFFFAOYSA-N_conf_1_1.chk
%Chk=NAQMVNRVTILPCV-UHFFFAOYSA-N_conf_1_2.chk
# TD(NStates=10, Root=1) B3LYP/6-31G** SCRF=(Solvent=water) volume pop=NPA density=current Geom=AllCheck Guess=Read



