%nprocshared=4
%mem=8GB
%Chk=KDXKERNSBIXSRK-YFKPBYRVSA-N_conf_3_0.chk
# opt=CalcFc B3LYP/6-31G** SCRF=(Solvent=water) scf=xqc 

KDXKERNSBIXSRK-YFKPBYRVSA-N_conf_3

0 1
N -1.3408631219574747 -1.2502397145765751 -0.20520515259214334
C -1.7240824891682245 0.05486730237068328 0.37125608014353967
C -0.5519676104132634 1.0483697475388587 0.3607325881290827
C 0.609943012050067 0.7060643252977064 1.3042216748019575
C 1.5550778245879229 -0.4218273530463219 0.8744850056421896
C 2.2357778905258052 -0.16504711522588558 -0.46981868516368464
N 3.214148370989735 -1.2088119195329814 -0.7577893095158235
C -2.927790022400081 0.644857063646343 -0.3877590269214314
O -3.6721856297442015 -0.2935891428005844 -1.019293972638552
O -3.2661232253867696 1.8166103422622117 -0.4318111026331401
H -0.9801475296538118 -1.108002699923478 -1.1487692899641218
H -2.202134298846921 -1.7883329408030886 -0.33923765145172885
H -2.0612914929299095 -0.11298623038487858 1.4005707455148377
H -0.19204706306282998 1.2075685878093303 -0.6625474772014678
H -0.9357962902168864 2.026751927685533 0.6815126609076675
H 1.2129449531717946 1.6147773629913151 1.4323395328858106
H 0.20802955807321857 0.4694018715690775 2.297237700501095
H 2.3242855758527803 -0.5198850656091955 1.6524459783623422
H 1.026686924951455 -1.3804789905353747 0.8562189640664971
H 2.7403228799901527 0.8072120521604026 -0.45711331363796387
H 1.500336768475058 -0.15121323021545055 -1.2793871398565282
H 3.909285337368759 -1.2431980344568412 -0.013458189055197894
H 3.718091442895366 -0.9755431134796152 -1.6118116321409306
H -4.400501765152746 0.22267496725887528 -1.42472039601871


--Link1--
%nprocshared=4
%mem=8GB
%Oldchk=KDXKERNSBIXSRK-YFKPBYRVSA-N_conf_3_0.chk
%Chk=KDXKERNSBIXSRK-YFKPBYRVSA-N_conf_3_1.chk
# freq B3LYP/6-31G** SCRF=(Solvent=water) volume NMR pop=NPA density=current Geom=AllCheck Guess=Read


--Link1--
%nprocshared=4
%mem=8GB
%Oldchk=KDXKERNSBIXSRK-YFKPBYRVSA-N_conf_3_1.chk
%Chk=KDXKERNSBIXSRK-YFKPBYRVSA-N_conf_3_2.chk
# TD(NStates=10, Root=1) B3LYP/6-31G** SCRF=(Solvent=water) volume pop=NPA density=current Geom=AllCheck Guess=Read



