%nprocshared=4
%mem=8GB
%Chk=KDXKERNSBIXSRK-YFKPBYRVSA-N_conf_0_0.chk
# opt=CalcFc B3LYP/6-31G** SCRF=(Solvent=water) scf=xqc 

KDXKERNSBIXSRK-YFKPBYRVSA-N_conf_0

0 1
N 2.346721397657278 0.9021356800803597 -1.0047145387736367
C 1.9649287111953893 0.11654168577315377 0.19289165695051408
C 0.46129668805458285 -0.1953665919201176 0.1814282769457289
C -0.4113837253084478 1.0645855729112899 0.22979590427172392
C -1.9033104122143323 0.7617396860776294 0.4081438219795147
C -2.519161868809434 0.038568065001011564 -0.7891053405697929
N -3.9537251672291216 -0.135710948078716 -0.587940030675521
C 2.7800719076809037 -1.1849160301675514 0.27403752155083616
O 3.9595465584783502 -1.1173548869947878 -0.3869722089609017
O 2.4811448669725493 -2.200712650719028 0.8806501100833987
H 2.1080200496465458 0.3642876679364 -1.8382838200635174
H 3.3702080454900973 0.9467174034195722 -1.0185267499208126
H 2.2209070721385626 0.7035335831940801 1.0823319618319656
H 0.21902480123656437 -0.8263666358051227 1.0463199154106244
H 0.21829390754643271 -0.7895866907542026 -0.7082917458979174
H -0.08818233407418967 1.6898108924241877 1.0713907698998444
H -0.2705997954302342 1.6596118425750521 -0.6801582033106043
H -2.426844356030897 1.7141262157221009 0.5632229630157204
H -2.049376328430978 0.17049410752362645 1.3210105453231242
H -2.0607897594713465 -0.9456742980098273 -0.9262709913363137
H -2.354618675539132 0.6167137298094596 -1.7044505932059275
H -4.117649549508534 -0.6970632396020531 0.24685879480248069
H -4.343050270202521 -0.662923262574611 -1.368305139349663
H 4.368528236210421 -1.993190897794286 -0.22177581235823773


--Link1--
%nprocshared=4
%mem=8GB
%Oldchk=KDXKERNSBIXSRK-YFKPBYRVSA-N_conf_0_0.chk
%Chk=KDXKERNSBIXSRK-YFKPBYRVSA-N_conf_0_1.chk
# freq B3LYP/6-31G** SCRF=(Solvent=water) volume NMR pop=NPA density=current Geom=AllCheck Guess=Read


--Link1--
%nprocshared=4
%mem=8GB
%Oldchk=KDXKERNSBIXSRK-YFKPBYRVSA-N_conf_0_1.chk
%Chk=KDXKERNSBIXSRK-YFKPBYRVSA-N_conf_0_2.chk
# TD(NStates=10, Root=1) B3LYP/6-31G** SCRF=(Solvent=water) volume pop=NPA density=current Geom=AllCheck Guess=Read



