%nprocshared=4
%mem=8GB
%Chk=KDXKERNSBIXSRK-YFKPBYRVSA-N_conf_2_0.chk
# opt=CalcFc B3LYP/6-31G** SCRF=(Solvent=water) scf=xqc 

KDXKERNSBIXSRK-YFKPBYRVSA-N_conf_2

0 1
N 1.466370286858996 0.062349192215668994 1.4442039931225952
C 1.8041378143914857 -0.48041807729872754 0.11098531803993268
C 0.84028352297547 0.029001073784047395 -0.9721030027219651
C -0.6091670768971387 -0.4552322504479222 -0.828109483143785
C -1.4681258430566506 0.41694857668092167 0.09215450752432587
C -2.919250848083127 -0.0649168398186776 0.10698259864256085
N -3.7305655400466846 0.7915509851687981 0.9649383542358965
C 3.24914203253511 -0.10033806979136758 -0.24591859778185848
O 3.696363597633351 -0.6969332047412912 -1.3683601659735543
O 3.9839172044179394 0.6369202837296932 0.39484497317611833
H 2.1973371045522785 -0.2238619187990067 2.099555399689309
H 1.554658954855272 1.0806179720986064 1.405658452450828
H 1.7630792984110544 -1.5737354822442944 0.17677513048794333
H 0.872670997682027 1.1247122172465005 -1.0323335285805963
H 1.2023901176540754 -0.3278793546490774 -1.9455812848867715
H -0.6276540082588062 -1.498448466948466 -0.49085898130294836
H -1.064872739997963 -0.4432111148849205 -1.8268613461502874
H -1.0752894972169174 0.39713179911364127 1.1133386851620368
H -1.4281656533466365 1.4584897530343823 -0.2507343588865255
H -2.9699616918675638 -1.0967029996131947 0.47193973169163805
H -3.334475213948233 -0.04801422977079969 -0.9063038052975636
H -3.3498323267912253 0.7815494599146618 1.9108627212903484
H -4.671751201113289 0.40709239803505404 1.0321250449160309
H 4.61876070865733 -0.37676281739982326 -1.4572003557030189


--Link1--
%nprocshared=4
%mem=8GB
%Oldchk=KDXKERNSBIXSRK-YFKPBYRVSA-N_conf_2_0.chk
%Chk=KDXKERNSBIXSRK-YFKPBYRVSA-N_conf_2_1.chk
# freq B3LYP/6-31G** SCRF=(Solvent=water) volume NMR pop=NPA density=current Geom=AllCheck Guess=Read


--Link1--
%nprocshared=4
%mem=8GB
%Oldchk=KDXKERNSBIXSRK-YFKPBYRVSA-N_conf_2_1.chk
%Chk=KDXKERNSBIXSRK-YFKPBYRVSA-N_conf_2_2.chk
# TD(NStates=10, Root=1) B3LYP/6-31G** SCRF=(Solvent=water) volume pop=NPA density=current Geom=AllCheck Guess=Read



