%nprocshared=3
%mem=6GB
%Chk=XSZYBMMYQCYIPC-UHFFFAOYSA-N_conf_0_0.chk
# opt=CalcFc B3LYP/6-31G** SCRF=(Solvent=water) scf=xqc 

XSZYBMMYQCYIPC-UHFFFAOYSA-N_conf_0

0 1
N 2.7669657585405174 1.184000194921349 -0.5648749712624035
C 1.5159651767393296 0.5693435146276362 -0.32194781037941145
C 0.33386486672097243 1.3003475198822 -0.4605999785509096
C -0.9152113045900104 0.7162549056512495 -0.1907230025928349
C -2.1647692783718293 1.5277714800114641 -0.39640580253762353
C -0.9701104213456612 -0.6259758681851806 0.23248331531123345
C -2.2811484707325445 -1.3148779872276473 0.4948810951518931
C 0.22816985865982717 -1.32726065938437 0.44815186810055047
C 1.4673965096919608 -0.7122024470865651 0.25586758228822937
N 2.6634810645367115 -1.4440382679398203 0.4445924184170363
H 3.4313003884820916 0.47439789708775126 -0.8704132954550676
H 2.6967580994403786 1.9314531969679718 -1.248274666313114
H 0.38280740573869626 2.330259869083202 -0.8047171672976192
H -1.9325079925606394 2.5806485187501935 -0.588972418992753
H -2.795836138557078 1.4950320778350383 0.49740050218644316
H -2.7262863227284497 1.1449738961331746 -1.2543408101383262
H -2.9450680401899567 -1.2201302101107367 -0.370243448254965
H -2.7650917141852247 -0.8820163551008438 1.3759700535237966
H -2.1422242702873078 -2.3855288593797432 0.6792289895264304
H 0.19368131218846327 -2.3578652052546047 0.7919484239085192
H 2.5524683598168876 -2.1828128972743075 1.1320066562649655
H 3.4053951529929667 -0.8017743140075327 0.7189824670958829


--Link1--
%nprocshared=3
%mem=6GB
%Oldchk=XSZYBMMYQCYIPC-UHFFFAOYSA-N_conf_0_0.chk
%Chk=XSZYBMMYQCYIPC-UHFFFAOYSA-N_conf_0_1.chk
# freq B3LYP/6-31G** SCRF=(Solvent=water) volume NMR pop=NPA density=current Geom=AllCheck Guess=Read


--Link1--
%nprocshared=3
%mem=6GB
%Oldchk=XSZYBMMYQCYIPC-UHFFFAOYSA-N_conf_0_1.chk
%Chk=XSZYBMMYQCYIPC-UHFFFAOYSA-N_conf_0_2.chk
# TD(NStates=10, Root=1) B3LYP/6-31G** SCRF=(Solvent=water) volume pop=NPA density=current Geom=AllCheck Guess=Read



