%nprocshared=3
%mem=6GB
%Chk=XSZYBMMYQCYIPC-UHFFFAOYSA-N_conf_1_0.chk
# opt=CalcFc B3LYP/6-31G** SCRF=(Solvent=water) scf=xqc 

XSZYBMMYQCYIPC-UHFFFAOYSA-N_conf_1

0 1
N 2.8853375923110094 -0.9990800935331777 -0.23174499451755812
C 1.5733741071067757 -0.4743352524902823 -0.15953971145610546
C 0.47349395199517574 -1.3337027497136382 -0.10753343610133573
C -0.8343335888821624 -0.831200850757797 -0.0013819986136444453
C -1.9914374970506543 -1.7920898151048823 0.0065265079369601145
C -1.0333662286543173 0.5617546453051112 0.05995282316218212
C -2.412924032063293 1.1566899880923085 0.1315916935656531
C 0.08328718158545655 1.4140266309277387 0.09007426414850853
C 1.3821017775896491 0.9007098346633143 0.06685724226025692
N 2.49434957498741 1.7751860782167956 0.06303970217659871
H 2.9089820006167555 -1.900239909146919 -0.698651324467394
H 3.4852460381067383 -0.32761171938788386 -0.7086819416766429
H 0.6335612568479743 -2.406821793824959 -0.1733021764339981
H -1.6511782046541972 -2.829500447731661 0.09359134370298963
H -2.6484595511001263 -1.5955590612597814 0.8597003923928955
H -2.562639182168179 -1.7024596944887493 -0.9227650827416028
H -2.877405486567273 0.9176436960472646 1.0933606159164304
H -2.385465569863105 2.2471498334263442 0.03300070419082881
H -3.038786812150187 0.7750861549706044 -0.6813543910256021
H -0.062461920399720816 2.489211232602825 0.15539486896486318
H 2.2911777872818235 2.6504473512556865 0.5355747740453839
H 3.2875468051244154 1.3046959419315796 0.4962901245703471


--Link1--
%nprocshared=3
%mem=6GB
%Oldchk=XSZYBMMYQCYIPC-UHFFFAOYSA-N_conf_1_0.chk
%Chk=XSZYBMMYQCYIPC-UHFFFAOYSA-N_conf_1_1.chk
# freq B3LYP/6-31G** SCRF=(Solvent=water) volume NMR pop=NPA density=current Geom=AllCheck Guess=Read


--Link1--
%nprocshared=3
%mem=6GB
%Oldchk=XSZYBMMYQCYIPC-UHFFFAOYSA-N_conf_1_1.chk
%Chk=XSZYBMMYQCYIPC-UHFFFAOYSA-N_conf_1_2.chk
# TD(NStates=10, Root=1) B3LYP/6-31G** SCRF=(Solvent=water) volume pop=NPA density=current Geom=AllCheck Guess=Read



