%nprocshared=6
%mem=12GB
%Chk=DZIHTWJGPDVSGE-ROTMJFINSA-N_conf_2_0.chk
# opt=CalcFc B3LYP/6-31G** SCRF=(Solvent=water) scf=xqc 

DZIHTWJGPDVSGE-ROTMJFINSA-N_conf_2

0 1
N -5.305505130133865 0.5329310941995297 -0.9156386647692755
C -4.0663092714781355 0.3146706060563389 -0.17066637462268808
C -2.898960234657727 1.0419175415714108 -0.8428190551241772
C -1.5782339933283063 0.7788418500864733 -0.11773202046365644
C -1.2797443350750988 -0.7208543079412782 0.01846930008073141
C 0.006132722717015788 -1.0243072085357572 0.8215645063098598
C 1.3021924175659723 -0.4417807837590449 0.21647059509256855
C 1.694168664873106 0.8995081737480263 0.8512702204550776
C 2.9161685857536277 1.5292400496772607 0.17108534315983226
C 3.8119475398735507 0.5045329476493144 -0.5408961153622214
N 5.158656639623158 1.0407018718361094 -0.7309912477914869
C 3.859664218799382 -0.8101766363114299 0.23532714311240174
C 2.4688854269261067 -1.4395495633713375 0.3883708041588642
C -2.4700679915951356 -1.4492840407919827 0.6700879221504493
C -3.78222433752376 -1.185240009922692 -0.06575991897902193
H -5.472473756228183 1.5334692950484774 -1.0166401722454381
H -5.209035696889093 0.1673591302134345 -1.8624898179365874
H -4.2045969797124405 0.7199598723758709 0.8392997754872696
H -3.0879107821815377 2.122381222949083 -0.8628951255881129
H -2.8021294437733886 0.7182206809118836 -1.8877293793407137
H -1.6130247015841919 1.2432034113082735 0.8756726467513252
H -0.7805874689566907 1.274257469594515 -0.6813333966060346
H -1.1489315921095056 -1.132778381230543 -0.9919206447964769
H 0.09847938863527411 -2.1176529135263586 0.8733133529300027
H -0.11147125365229095 -0.6810253622664924 1.8574768858167268
H 1.1494126005281489 -0.2916688656616804 -0.860611125940042
H 1.9270438350830772 0.7377942082564717 1.9125630433271146
H 0.8698599277136364 1.6181346426000378 0.8334730447536775
H 2.5827154426187566 2.2746622543126995 -0.5625013166873225
H 3.4790062885879793 2.08578877173395 0.9320403608884621
H 3.398821945358012 0.3044181810342311 -1.5374544188584613
H 5.58986839334685 1.221888244653413 0.17488313081429382
H 5.104474587716726 1.942797469834696 -1.2026460552330427
H 4.2789316452454775 -0.6323722594566827 1.2350617010116656
H 4.527955260574601 -1.5298028955014615 -0.2537950205194344
H 2.419575251812902 -1.9265545862170965 1.3708394113563793
H 2.351478926672968 -2.2401706953322145 -0.35321550275788727
H -2.2825451893615143 -2.5297528726361067 0.6860899959770129
H -2.573424493424074 -1.1303177168120375 1.7153175050244596
H -3.7282717210531384 -1.6346537892488031 -1.0662259905174238
H -4.5999913373081505 -1.6887361011283142 0.4645754498145189


--Link1--
%nprocshared=6
%mem=12GB
%Oldchk=DZIHTWJGPDVSGE-ROTMJFINSA-N_conf_2_0.chk
%Chk=DZIHTWJGPDVSGE-ROTMJFINSA-N_conf_2_1.chk
# freq B3LYP/6-31G** SCRF=(Solvent=water) volume NMR pop=NPA density=current Geom=AllCheck Guess=Read


--Link1--
%nprocshared=6
%mem=12GB
%Oldchk=DZIHTWJGPDVSGE-ROTMJFINSA-N_conf_2_1.chk
%Chk=DZIHTWJGPDVSGE-ROTMJFINSA-N_conf_2_2.chk
# TD(NStates=10, Root=1) B3LYP/6-31G** SCRF=(Solvent=water) volume pop=NPA density=current Geom=AllCheck Guess=Read



