%nprocshared=7
%mem=14GB
%Chk=IXVDJDOFHBHDMT-UHFFFAOYSA-N_conf_3_0.chk
# opt=CalcFc B3LYP/6-31G** SCRF=(Solvent=water) scf=xqc 

IXVDJDOFHBHDMT-UHFFFAOYSA-N_conf_3

0 1
C 8.278918005781957 -0.6941067244769983 -0.17241888661707055
C 6.793458353159659 -0.5109088086278493 -0.25531597078031854
C 6.1039035318487445 -0.7797761062966598 -1.4385455297808332
C 4.712987298763062 -0.6350029127564327 -1.4949866995186627
C 3.9742635222211353 -0.2014380308572996 -0.38482292241399635
N 2.5794248367553925 -0.1401890015110491 -0.4971566767005689
C 1.8135306167445453 0.611698401590793 0.4905502073357635
C 0.33508552300182187 0.6024867764046726 0.09474502236222263
C -0.5148220645093583 1.3784699532213274 1.1048599964056283
C -1.9945081707485321 1.435156698750579 0.7156850495361474
N -2.6323308713794558 0.14249123816624626 0.9376105747794987
C -3.971292868074246 -0.03702880610010258 0.5676179424577258
C -4.881317721443633 1.0117644279367346 0.4006047885865966
C -6.226382770273293 0.765497411432442 0.09548704904792538
C -6.704539314306378 -0.5429308073215067 -0.011272139187597237
C -8.137116328163115 -0.802726068240844 -0.3681421574520526
C -5.812466169430506 -1.5993600557529493 0.18106161852632752
C -4.470152489462439 -1.3451155816464493 0.4849252180967832
C 4.670429084882891 0.01007586284834918 0.809245760689509
C 6.0628407455164215 -0.13190640079343158 0.873609091378554
H 8.51312267483538 -1.67406197648231 0.2555202517750559
H 8.740903375095229 -0.6251383754118809 -1.1632831917317388
H 8.729341060188606 0.08527607572731913 0.4520545094584506
H 6.63800760798459 -1.1133017158286445 -2.325123570561743
H 4.20453264745341 -0.8712245128167385 -2.426495333287371
H 2.303180714010021 0.06168267402358746 -1.455078805133118
H 2.1742226205801876 1.646107133635117 0.5412231882879303
H 1.9160897323569666 0.15435344093792705 1.4811667461731464
H 0.21798315647907765 1.0466180011305388 -0.9018561047665523
H -0.011028533742351583 -0.4350007305608543 0.01902541440691405
H -0.13551354349331562 2.405906210216411 1.1661718441139088
H -0.40603172399727583 0.9352975961866352 2.1022558003112555
H -2.4746077673654483 2.192951314222704 1.3464120528819838
H -2.0939388986264427 1.7443156622564713 -0.3320956089775084
H -2.0673355115919754 -0.6505946199470323 0.6446707034420498
H -4.568084994936705 2.045939407446222 0.5016180194115014
H -6.8986641596123 1.6083861523260434 -0.04695988313413284
H -8.793734268434402 -0.060630264858708934 0.098321580471842
H -8.265801391488042 -0.7588033282989453 -1.454245340746548
H -8.459307972439529 -1.7884435563840753 -0.015865267010958146
H -6.152842554223448 -2.6296356048486254 0.1076686585585317
H -3.8085482639740316 -2.190446859172517 0.6577446519801708
H 4.149024926268233 0.28637612886451935 1.7200386117431952
H 6.56911831778686 0.04692028166662671 1.8193262443377767


--Link1--
%nprocshared=7
%mem=14GB
%Oldchk=IXVDJDOFHBHDMT-UHFFFAOYSA-N_conf_3_0.chk
%Chk=IXVDJDOFHBHDMT-UHFFFAOYSA-N_conf_3_1.chk
# freq B3LYP/6-31G** SCRF=(Solvent=water) volume NMR pop=NPA density=current Geom=AllCheck Guess=Read


--Link1--
%nprocshared=7
%mem=14GB
%Oldchk=IXVDJDOFHBHDMT-UHFFFAOYSA-N_conf_3_1.chk
%Chk=IXVDJDOFHBHDMT-UHFFFAOYSA-N_conf_3_2.chk
# TD(NStates=10, Root=1) B3LYP/6-31G** SCRF=(Solvent=water) volume pop=NPA density=current Geom=AllCheck Guess=Read



