%nprocshared=7
%mem=14GB
%Chk=IXVDJDOFHBHDMT-UHFFFAOYSA-N_conf_1_0.chk
# opt=CalcFc B3LYP/6-31G** SCRF=(Solvent=water) scf=xqc 

IXVDJDOFHBHDMT-UHFFFAOYSA-N_conf_1

0 1
C 8.514791442678744 0.6442904697802502 -0.7120329110241153
C 7.07103289180662 0.44143105796070226 -0.36383285194103065
C 6.709417020674327 -0.23738624142188666 0.8010407549591664
C 5.360453504987023 -0.3941674799166882 1.1386574962260403
C 4.33650920945231 0.10285231483286633 0.3199699647149564
N 3.012031360082453 -0.035093496797377145 0.7543241121835731
C 1.9221708874495953 0.1641069071297618 -0.1939834381969659
C 0.5901120016046373 -0.12203320991664131 0.5017710453008976
C -0.5900146505715768 0.1042041813559353 -0.4423821292103914
C -1.9220852224429277 -0.18124715015229184 0.25359313188529164
N -3.012489703939796 0.024828391664376205 -0.6924264967980327
C -4.336998584920645 -0.11232597954971306 -0.25798799528137256
C -4.715054498531669 -0.8397004017091256 0.8749761074514391
C -6.063584040542361 -1.00005877240909 1.2198523151620853
C -7.072542877677842 -0.46793687935728623 0.41363058163039873
C -8.514121741478007 -0.6119770941382376 0.7983835201543366
C -6.709376453153099 0.23738046537827848 -0.7349220278656654
C -5.360262558444713 0.3938291428135862 -1.0720291234253883
C 4.713891545582665 0.8291329468546986 -0.8138562059195936
C 6.062240213270239 0.9899195269962919 -1.1590583079899972
H 8.646569248213684 0.7371330076018076 -1.7952753480332717
H 8.89207143132208 1.5522424160304453 -0.2317666110371862
H 9.118708925626262 -0.20846301002914316 -0.3838476831729624
H 7.4717688764243935 -0.6422436711200069 1.4620851397138614
H 5.113762691510927 -0.9108928811270144 2.0629083764423126
H 2.9027032226320277 -0.8746417628762467 1.3184780205084745
H 1.915912326182528 1.1995111508398306 -0.5536565689459257
H 2.039864286028099 -0.5060930065173763 -1.0540238470917829
H 0.579091090657722 -1.1568825829982146 0.8666274055052451
H 0.4885162283454088 0.523997864212977 1.38303640505826
H -0.4887857961666824 -0.5420038859161134 -1.3235692206864171
H -0.5785264793035303 1.1390343612309726 -0.8073919222017796
H -1.9182324258242713 -1.218066402183834 0.6091213676715147
H -2.0371490710398255 0.4859065391236829 1.1163296034195362
H -2.901413729668366 0.8658577454365036 -1.2544020865112466
H -3.97211809488345 -1.2982953673849176 1.5193636158243022
H -6.3159783823330145 -1.5550609452107398 2.120567033671663
H -9.154936369952702 -0.6390608608751097 -0.08937836941648802
H -8.818728752871406 0.2287048656408356 1.4292826381058392
H -8.681060633866881 -1.5447914266855878 1.3472574406134104
H -7.47067993600204 0.6628513611760682 -1.3841600182219542
H -5.1129162129910695 0.9229442788288553 -1.9889937133956046
H 3.970958834081895 1.2908968742331668 -1.4557766941880934
H 6.314478977988955 1.5573666391706 -2.0519220230535553


--Link1--
%nprocshared=7
%mem=14GB
%Oldchk=IXVDJDOFHBHDMT-UHFFFAOYSA-N_conf_1_0.chk
%Chk=IXVDJDOFHBHDMT-UHFFFAOYSA-N_conf_1_1.chk
# freq B3LYP/6-31G** SCRF=(Solvent=water) volume NMR pop=NPA density=current Geom=AllCheck Guess=Read


--Link1--
%nprocshared=7
%mem=14GB
%Oldchk=IXVDJDOFHBHDMT-UHFFFAOYSA-N_conf_1_1.chk
%Chk=IXVDJDOFHBHDMT-UHFFFAOYSA-N_conf_1_2.chk
# TD(NStates=10, Root=1) B3LYP/6-31G** SCRF=(Solvent=water) volume pop=NPA density=current Geom=AllCheck Guess=Read



