%nprocshared=7
%mem=14GB
%Chk=IXVDJDOFHBHDMT-UHFFFAOYSA-N_conf_2_0.chk
# opt=CalcFc B3LYP/6-31G** SCRF=(Solvent=water) scf=xqc 

IXVDJDOFHBHDMT-UHFFFAOYSA-N_conf_2

0 1
C -5.890875062018351 2.462306372539697 -2.361987652503335
C -5.069852956250952 1.2975917494926885 -1.8959545308534353
C -5.086666262250932 0.9062460889777298 -0.5554166296057683
C -4.344379425902815 -0.20188829376025666 -0.12532281403678835
C -3.55531205024037 -0.9384421750806347 -1.0143438978214196
N -2.843355789763882 -2.0839774570607914 -0.6559383190720566
C -2.440367943307028 -2.3450443915172907 0.7212941915939949
C -1.331503435124252 -1.4028828413468555 1.1972691184316193
C -0.009454428029053082 -1.6180763148789346 0.4557481921321477
C 1.0756919413626327 -0.6721170338693111 0.9741077243732421
N 2.3255944468571297 -0.939071768664882 0.2700414303369528
C 3.4809895344332418 -0.2335602780992356 0.6305321306957173
C 4.723005103381019 -0.727556700383122 0.2069153068834229
C 5.913718692389681 -0.04380221606597472 0.47733575641935366
C 5.887556384821577 1.18185387171101 1.1453468744000133
C 7.1577116246060335 1.9118894905313555 1.4622600485210904
C 4.654115074382687 1.6985454893860554 1.5491514644192053
C 3.466707744473528 1.0067270427138542 1.276935007875406
C -3.591664551758631 -0.5670040987995174 -2.3660275268847966
C -4.329601968856326 0.5387026858592344 -2.8040377503623755
H -6.897070218325533 2.1270857181517493 -2.6324669539766066
H -5.43150411192144 2.940903388114663 -3.2330391583481743
H -5.968644106542941 3.2232439213514383 -1.577426023025866
H -5.684686325199302 1.453722049625984 0.1687850843430247
H -4.407984968161146 -0.4739969038305203 0.9231457766665782
H -2.126596611693197 -2.3221752421215114 -1.336823144914959
H -2.0815105660752873 -3.3801381879501196 0.7765678527591728
H -3.300029599652289 -2.2951254451462284 1.3985880534783397
H -1.6448919952125143 -0.3574469063741729 1.094795235197272
H -1.168395354361766 -1.57877122870464 2.268058538270975
H -0.14363727122939607 -1.453558446796163 -0.6198199640745993
H 0.3153590946494208 -2.6588339193851094 0.5785508969500384
H 1.2116065528533893 -0.822462274894005 2.0518173709160563
H 0.7520478233336436 0.36070154152598694 0.8013527802289487
H 2.523660112380474 -1.9316938354548538 0.1699457006520224
H 4.77660730224903 -1.6625182523107962 -0.345410645349229
H 6.85740535031801 -0.47292473281876923 0.14891961088320194
H 7.963235192067621 1.6166841101118485 0.781266986242942
H 7.019692302094625 2.9929265591357805 1.3535262342493688
H 7.469494774287112 1.693129244926979 2.4879387923549836
H 4.602589277921191 2.652527651288056 2.0693529569743148
H 2.532652502601282 1.4677677665400912 1.581450869656744
H -3.0375663809370583 -1.1440685957561099 -3.1028378012889815
H -4.323889448648334 0.7945827990876188 -3.8609366452075613


--Link1--
%nprocshared=7
%mem=14GB
%Oldchk=IXVDJDOFHBHDMT-UHFFFAOYSA-N_conf_2_0.chk
%Chk=IXVDJDOFHBHDMT-UHFFFAOYSA-N_conf_2_1.chk
# freq B3LYP/6-31G** SCRF=(Solvent=water) volume NMR pop=NPA density=current Geom=AllCheck Guess=Read


--Link1--
%nprocshared=7
%mem=14GB
%Oldchk=IXVDJDOFHBHDMT-UHFFFAOYSA-N_conf_2_1.chk
%Chk=IXVDJDOFHBHDMT-UHFFFAOYSA-N_conf_2_2.chk
# TD(NStates=10, Root=1) B3LYP/6-31G** SCRF=(Solvent=water) volume pop=NPA density=current Geom=AllCheck Guess=Read



