%nprocshared=4
%mem=8GB
%Chk=KQIKKETXZQDHGE-FOCLMDBBSA-N_conf_0_0.chk
# opt=CalcFc B3LYP/6-31G** SCRF=(Solvent=water) scf=xqc 

KQIKKETXZQDHGE-FOCLMDBBSA-N_conf_0

0 1
N -5.869906847686644 -0.32636169921652675 0.40480181278623834
C -4.481590840528704 -0.2772138883450962 0.24032379143320354
C -3.726436738502163 0.6837666380025894 0.9158443552618156
C -2.356015933456256 0.817669836565083 0.6677768655044827
C -1.722165668089816 0.013143426214207977 -0.28596612194566745
N -0.35341241664110923 0.1444410029069859 -0.5830859416561731
N 0.3436671785559207 -0.08019458130963715 0.4311265637397215
C 1.713037604794448 0.03839521274388817 0.13077823372849567
C 2.553486976377109 -1.0595099694867554 0.3293800422141965
C 3.924851448727949 -0.9645975853653432 0.06813874704662123
C 4.489223060498442 0.24370689707043267 -0.346520748613065
N 5.835844281550752 0.3015175600441291 -0.7198933614029628
C 3.643709817057696 1.3280354259609624 -0.590444618283218
C 2.272191787731713 1.2359066716873623 -0.32967410479362447
C -2.4940691125851626 -0.8968358822034468 -1.0119314041805978
C -3.864538035749434 -1.0286626246088455 -0.7621639492460628
H -6.186952808596162 -0.012327603325478607 1.316677601393251
H -6.284133214699469 -1.2141030679384863 0.1383971153693402
H -4.197156186396636 1.340456539142124 1.6423473819029328
H -1.7810862594828012 1.5621707665794191 1.2117422492627694
H 2.1340105174793087 -2.0008537534833444 0.6739933453473191
H 4.547674233601087 -1.8459489197185115 0.19471623771722163
H 6.425977852570461 -0.37154698508624157 -0.24120339963445356
H 6.227955004737107 1.237752124800665 -0.7053977313975969
H 4.043851847651068 2.2583710761370472 -0.9841675232333964
H 1.6330890822912332 2.0979406183436877 -0.5007484826438443
H -2.0263739683008275 -1.5000405518188462 -1.785475685960537
H -4.4447326629086295 -1.7250766842922587 -1.3614323393632672


--Link1--
%nprocshared=4
%mem=8GB
%Oldchk=KQIKKETXZQDHGE-FOCLMDBBSA-N_conf_0_0.chk
%Chk=KQIKKETXZQDHGE-FOCLMDBBSA-N_conf_0_1.chk
# freq B3LYP/6-31G** SCRF=(Solvent=water) volume NMR pop=NPA density=current Geom=AllCheck Guess=Read


--Link1--
%nprocshared=4
%mem=8GB
%Oldchk=KQIKKETXZQDHGE-FOCLMDBBSA-N_conf_0_1.chk
%Chk=KQIKKETXZQDHGE-FOCLMDBBSA-N_conf_0_2.chk
# TD(NStates=10, Root=1) B3LYP/6-31G** SCRF=(Solvent=water) volume pop=NPA density=current Geom=AllCheck Guess=Read



