%nprocshared=4
%mem=8GB
%Chk=KQIKKETXZQDHGE-FOCLMDBBSA-N_conf_2_0.chk
# opt=CalcFc B3LYP/6-31G** SCRF=(Solvent=water) scf=xqc 

KQIKKETXZQDHGE-FOCLMDBBSA-N_conf_2

0 1
N 5.84350132836782 0.6619928629567281 -0.4205508187656198
C 4.451651925875293 0.5645485055392891 -0.3198053831799661
C 3.678291874850348 1.7105604008305493 -0.12236858716847197
C 2.280883647714316 1.640284188328158 -0.13849390973515235
C 1.631561396735067 0.4285319592528799 -0.3853942559856262
N 0.22572609052143086 0.3976963862917505 -0.4263904092040272
N -0.22424764967695526 -0.4148824847950316 0.41161180406665254
C -1.6306511488614128 -0.43615909606519054 0.379597000487748
C -2.3427398434958024 -0.8001931690912185 -0.7689294506635556
C -3.7412603495387726 -0.839729996570178 -0.7576315472323273
C -4.451754047544015 -0.5680765622696825 0.4135064834480902
N -5.84813055665098 -0.4925291503774369 0.38975718865683495
C -3.7437595819139386 -0.1597095251455335 1.545954083068565
C -2.3451295064040796 -0.11904828248016398 1.5372481441366015
C 2.4078467175340696 -0.7041831793277343 -0.6555650905013283
C 3.804962124953568 -0.631374908561214 -0.6385995966921727
H 6.241078513808846 1.4310477883282136 0.10966398766792396
H 6.329859726185905 -0.21309443721717067 -0.2522317900318365
H 4.155590603317373 2.6722446287038015 0.045233485148788936
H 1.6937005851070135 2.538693266338339 0.0319258807865706
H -1.8052687941490133 -1.0398161688691618 -1.6824540724707757
H -4.2687685357569745 -1.0878996048138445 -1.6745849547105818
H -6.2828100354298355 -0.6024216512241499 1.300468169306255
H -6.280802918690633 -1.0780902777750416 -0.3176387227269521
H -4.273773252710072 0.12951395719580522 2.44936159066707
H -1.8086455215462054 0.1783876730883935 2.4342226025373437
H 1.9211079206917117 -1.6461426351286668 -0.8933090843677362
H 4.38197928670672 -1.52015048714151 -0.8789197773788239


--Link1--
%nprocshared=4
%mem=8GB
%Oldchk=KQIKKETXZQDHGE-FOCLMDBBSA-N_conf_2_0.chk
%Chk=KQIKKETXZQDHGE-FOCLMDBBSA-N_conf_2_1.chk
# freq B3LYP/6-31G** SCRF=(Solvent=water) volume NMR pop=NPA density=current Geom=AllCheck Guess=Read


--Link1--
%nprocshared=4
%mem=8GB
%Oldchk=KQIKKETXZQDHGE-FOCLMDBBSA-N_conf_2_1.chk
%Chk=KQIKKETXZQDHGE-FOCLMDBBSA-N_conf_2_2.chk
# TD(NStates=10, Root=1) B3LYP/6-31G** SCRF=(Solvent=water) volume pop=NPA density=current Geom=AllCheck Guess=Read



