%nprocshared=4
%mem=8GB
%Chk=KQIKKETXZQDHGE-FOCLMDBBSA-N_conf_3_0.chk
# opt=CalcFc B3LYP/6-31G** SCRF=(Solvent=water) scf=xqc 

KQIKKETXZQDHGE-FOCLMDBBSA-N_conf_3

0 1
N -5.8590042072743564 -0.4322161966617772 -0.29994441376714914
C -4.497624014869385 -0.28045164259329675 -0.017281010148452392
C -3.7960863478821483 0.8241742789104312 -0.5050329439863652
C -2.4117707325389723 0.9246197129008741 -0.32868995808817164
C -1.6961130809478593 -0.10462325252153125 0.2934065261517182
N -0.3089987838398637 -0.022491422638105066 0.5128833911147722
N 0.3060732341598236 0.07048789207984335 -0.5725220900086891
C 1.6942461073417274 0.1352483193384466 -0.35392997383869634
C 2.283700394430634 1.1751394926441974 0.3738616797967785
C 3.67104854177547 1.2258571157517666 0.5476687818144659
C 4.498280494546229 0.2696804694832016 -0.04534770398589004
N 5.869741035333258 0.25615172240143486 0.2288775237147253
C 3.9070500445642042 -0.7932692767532951 -0.7317095422852029
C 2.519861098243744 -0.8464504854324935 -0.9068720992588419
C -2.393200429164156 -1.2301865899088598 0.7387083153069042
C -3.7776651885215884 -1.3280429505662434 0.5612686872622036
H -6.355307969342198 0.4450833718641459 -0.4203465249674154
H -6.342419270218727 -1.0658017025419841 0.3288419969004189
H -4.320171183653931 1.620847716435903 -1.0258620483446441
H -1.8854824937266244 1.8033023437234545 -0.6914918099299652
H 1.6570366928451834 1.9421420209665783 0.8207253367991239
H 4.097912532955306 2.023161909916594 1.1499226809006589
H 6.422493099064189 -0.24703506038796566 -0.4579706488522383
H 6.25677748617337 1.1703529969463802 0.44079115460513785
H 4.520724630478328 -1.5914490043547778 -1.140403197127214
H 2.0775058670452333 -1.6679114684284284 -1.4640614720710627
H -1.8510892767126081 -2.0442595489282893 1.2123507659301382
H -4.2875182802642655 -2.232060761645934 0.8830121171912763


--Link1--
%nprocshared=4
%mem=8GB
%Oldchk=KQIKKETXZQDHGE-FOCLMDBBSA-N_conf_3_0.chk
%Chk=KQIKKETXZQDHGE-FOCLMDBBSA-N_conf_3_1.chk
# freq B3LYP/6-31G** SCRF=(Solvent=water) volume NMR pop=NPA density=current Geom=AllCheck Guess=Read


--Link1--
%nprocshared=4
%mem=8GB
%Oldchk=KQIKKETXZQDHGE-FOCLMDBBSA-N_conf_3_1.chk
%Chk=KQIKKETXZQDHGE-FOCLMDBBSA-N_conf_3_2.chk
# TD(NStates=10, Root=1) B3LYP/6-31G** SCRF=(Solvent=water) volume pop=NPA density=current Geom=AllCheck Guess=Read



