%nprocshared=5
%mem=10GB
%Chk=NVKGJHAQGWCWDI-UHFFFAOYSA-N_conf_4_0.chk
# opt=CalcFc B3LYP/6-31G** SCRF=(Solvent=water) scf=xqc 

NVKGJHAQGWCWDI-UHFFFAOYSA-N_conf_4

0 1
N -4.891779221400717 -0.5480163240287688 0.7437348949377244
C -3.5234907310764774 -0.2789889355132556 0.6639469336206464
C -2.641287879492528 -0.8361459585848559 1.585267447192543
C -1.2615420167130915 -0.6676054393133686 1.4432817299184535
C -0.7222198203316272 0.024158366874278664 0.34543090353526806
C 0.7387692836838032 0.17985295351259661 0.2517531855665889
C 1.3200842210204968 1.3892289179712376 0.6690841834990368
C 2.702121501156196 1.5859965150831223 0.6097374249747167
C 3.546854106564323 0.5669548578409447 0.17901693243055342
N 4.912659311028699 0.8053880793683252 0.009673160795896472
C 2.975499178993846 -0.6168798689976973 -0.2898909007800251
C 1.581914337329784 -0.8365566343739684 -0.2465555748306556
C 1.034063328398776 -2.1609026306965746 -0.7269855979949046
F 1.9667927796236742 -2.9348042642933523 -1.3557384501259526
F 0.009623282366724727 -2.038954110054206 -1.6151584408411148
F 0.5628700394210167 -2.928984211015153 0.2958375520019677
C -1.6061459593945886 0.5378840587143165 -0.6277363339470392
C -1.105319921080386 1.282593958365717 -1.8440534162021525
F -2.081072115292133 1.5262514328173502 -2.7675111457888586
F -0.12429152922553172 0.6257090973664431 -2.521760457653591
F -0.5970334140180792 2.507618777771224 -1.5292544648777164
C -2.996241082439038 0.36120248826304574 -0.45852697987742685
H -5.227097126734645 -0.7348222388788762 1.683640001753961
H -5.481239428626339 0.11280395550955878 0.24731950581320086
H -3.0182460272377147 -1.4092731663327456 2.42855198035469
H -0.6028199730253551 -1.0977970724105282 2.196760218737141
H 0.6923526172587797 2.2014160389109447 1.0337956502942105
H 3.110678499939708 2.548622111893649 0.9066125796375921
H 5.48788529857944 -0.03090848643743693 -0.007580157825719458
H 5.290974778955939 1.522170017878261 0.6211103597073943
H 3.624636254666844 -1.3894357467941894 -0.7006905734354586
H -3.6779525729000366 0.732223459584036 -1.2231121505909048


--Link1--
%nprocshared=5
%mem=10GB
%Oldchk=NVKGJHAQGWCWDI-UHFFFAOYSA-N_conf_4_0.chk
%Chk=NVKGJHAQGWCWDI-UHFFFAOYSA-N_conf_4_1.chk
# freq B3LYP/6-31G** SCRF=(Solvent=water) volume NMR pop=NPA density=current Geom=AllCheck Guess=Read


--Link1--
%nprocshared=5
%mem=10GB
%Oldchk=NVKGJHAQGWCWDI-UHFFFAOYSA-N_conf_4_1.chk
%Chk=NVKGJHAQGWCWDI-UHFFFAOYSA-N_conf_4_2.chk
# TD(NStates=10, Root=1) B3LYP/6-31G** SCRF=(Solvent=water) volume pop=NPA density=current Geom=AllCheck Guess=Read



