%nprocshared=5
%mem=10GB
%Chk=NVKGJHAQGWCWDI-UHFFFAOYSA-N_conf_2_0.chk
# opt=CalcFc B3LYP/6-31G** SCRF=(Solvent=water) scf=xqc 

NVKGJHAQGWCWDI-UHFFFAOYSA-N_conf_2

0 1
N -4.7567195556736666 0.1780863285274248 -1.3679227983487892
C -3.412242079201396 0.18194227387904688 -0.9860079441370493
C -2.437384289043303 0.6781518486672705 -1.8470366860250305
C -1.0819754595665414 0.5743820671254591 -1.5246346532255584
C -0.6621768616698965 -0.06517404292541254 -0.34610177742139764
C 0.7785004725066998 -0.1508570731240255 -0.05793368813177365
C 1.4781609411346202 -1.310144019247553 -0.43307575105845586
C 2.847279405160266 -1.439365000509926 -0.18678198724386857
C 3.5480504043128667 -0.43413658015242557 0.47380860048855666
N 4.936926059848058 -0.5127249312416634 0.6092408929417139
C 2.876181540514349 0.7472405088558689 0.7913414941990206
C 1.4930367134813258 0.89945053043602 0.5568396481001641
C 0.8224875126139143 2.19774500473213 0.9418548191377086
F 1.618615005024052 3.0146043862377034 1.6923179543384625
F -0.3103794486680229 2.0270784326785494 1.6787940537789998
F 0.46239763891917945 2.9421749421587906 -0.14134924095451534
C -1.6403430096172744 -0.6258881610365531 0.502688411968672
C -1.265752522698574 -1.37457305125388 1.7607006244486147
F -0.6635019970481784 -2.5687910539097283 1.499333239326997
F -0.41112414685070947 -0.6871624865214786 2.5685820298464352
F -2.339009755657079 -1.67674508206722 2.548789441486338
C -3.0028495429397855 -0.5119931138062311 0.1536145552791699
H -5.409196965528463 0.10107086996576115 -0.5935505114510525
H -5.0070598128896755 0.9294384499409202 -2.0038494826187523
H -2.721790035781246 1.1550562510970657 -2.7815885536885943
H -0.34739043874634357 0.9918220908829304 -2.2123895958764463
H 0.9577833470692458 -2.1253991040065534 -0.9345190284240386
H 3.359543637968305 -2.3394303366579017 -0.5172059905412324
H 5.29414272721954 -1.4625589883633916 0.6518469879911017
H 5.316727338445006 0.07067842325862635 1.3486348193407784
H 3.4360832000699038 1.570353963277945 1.233935490147201
H -3.7570200227073434 -0.974333346898113 0.7895126111650493


--Link1--
%nprocshared=5
%mem=10GB
%Oldchk=NVKGJHAQGWCWDI-UHFFFAOYSA-N_conf_2_0.chk
%Chk=NVKGJHAQGWCWDI-UHFFFAOYSA-N_conf_2_1.chk
# freq B3LYP/6-31G** SCRF=(Solvent=water) volume NMR pop=NPA density=current Geom=AllCheck Guess=Read


--Link1--
%nprocshared=5
%mem=10GB
%Oldchk=NVKGJHAQGWCWDI-UHFFFAOYSA-N_conf_2_1.chk
%Chk=NVKGJHAQGWCWDI-UHFFFAOYSA-N_conf_2_2.chk
# TD(NStates=10, Root=1) B3LYP/6-31G** SCRF=(Solvent=water) volume pop=NPA density=current Geom=AllCheck Guess=Read



