%nprocshared=5
%mem=10GB
%Chk=NVKGJHAQGWCWDI-UHFFFAOYSA-N_conf_3_0.chk
# opt=CalcFc B3LYP/6-31G** SCRF=(Solvent=water) scf=xqc 

NVKGJHAQGWCWDI-UHFFFAOYSA-N_conf_3

0 1
N -4.9146335746633225 -0.32828261810997156 0.7710901550224118
C -3.5347929411333987 -0.19178163743090926 0.5954301842789073
C -2.7200429919092963 0.15963401307941716 1.667951639532985
C -1.3298296243711205 0.1789326308934935 1.53052109522584
C -0.7130212306470596 -0.19107060037062903 0.32334597439843304
C 0.7560670497435155 -0.15637913325579214 0.23790461858525314
C 1.4772734359503337 -1.3456275812642422 0.4374434041378263
C 2.872971551395987 -1.3636926176222979 0.37533885087096297
C 3.589885028012634 -0.1897452422476667 0.16144481313296352
N 4.974686557260556 -0.2299746404182087 -0.01678903502272929
C 2.8813475922608562 0.9855285291987049 -0.09285588143872632
C 1.471593538809813 1.0274323580844849 -0.042424523588433516
C 0.7676350988726021 2.3431422731559812 -0.2813155974673298
F 0.19429147282157552 2.8393122347804587 0.8516565150884229
F -0.2267902012531204 2.2702636013879705 -1.208885544170126
F 1.6011179395667114 3.3302430555938147 -0.7228120406066995
C -1.528499440210608 -0.6075833952276861 -0.7506584772500914
C -0.9407036108651262 -1.0698301043817873 -2.0641874150993607
F -0.028861397102845028 -0.20409680355114662 -2.586910022349822
F -1.8771663209703495 -1.2390469537619349 -3.043449655653446
F -0.30872843677157824 -2.272464544927392 -1.9589885938400091
C -2.9300737396140493 -0.6231636215505375 -0.5860632340945288
H -5.299288274460854 0.2687995555030695 1.4970738285272447
H -5.450850263333045 -0.27502547118820325 -0.0897524616759244
H -3.1588434198285014 0.4254154798286395 2.626322238711496
H -0.7244670006302171 0.4782739716208357 2.3852540464530794
H 0.9506591875493632 -2.2797061839931847 0.6301245430076604
H 3.3935950321849107 -2.310073611210699 0.49808519532282636
H 5.434984441040778 -0.999857590898358 0.458885558397937
H 5.445766010501616 0.6560421689870352 0.13669250592238177
H 3.433673662976716 1.892164532054702 -0.33748223548264766
H -3.5589551311833905 -0.9777820527584682 -1.4019904488773591


--Link1--
%nprocshared=5
%mem=10GB
%Oldchk=NVKGJHAQGWCWDI-UHFFFAOYSA-N_conf_3_0.chk
%Chk=NVKGJHAQGWCWDI-UHFFFAOYSA-N_conf_3_1.chk
# freq B3LYP/6-31G** SCRF=(Solvent=water) volume NMR pop=NPA density=current Geom=AllCheck Guess=Read


--Link1--
%nprocshared=5
%mem=10GB
%Oldchk=NVKGJHAQGWCWDI-UHFFFAOYSA-N_conf_3_1.chk
%Chk=NVKGJHAQGWCWDI-UHFFFAOYSA-N_conf_3_2.chk
# TD(NStates=10, Root=1) B3LYP/6-31G** SCRF=(Solvent=water) volume pop=NPA density=current Geom=AllCheck Guess=Read



