%nprocshared=5
%mem=10GB
%Chk=NVKGJHAQGWCWDI-UHFFFAOYSA-N_conf_1_0.chk
# opt=CalcFc B3LYP/6-31G** SCRF=(Solvent=water) scf=xqc 

NVKGJHAQGWCWDI-UHFFFAOYSA-N_conf_1

0 1
N -4.7884931377552995 0.9186827351954393 -1.0492721930655378
C -3.4297974444653327 0.7004208047166471 -0.8047345028402584
C -2.513131737346276 0.7260771534052679 -1.8521169930940615
C -1.1745318349749283 0.38938066712164504 -1.6361805582684046
C -0.7233690677309562 -0.020605122296526356 -0.37025469868141375
C 0.6963543882737898 -0.3687747871672449 -0.1996773493169433
C 1.0825161496109563 -1.7156190100125008 -0.3050053964613179
C 2.417930181628258 -2.0982235725621874 -0.15625614180580533
C 3.398253055039426 -1.155059931539078 0.13930093772927143
N 4.74663443179598 -1.5219846679187885 0.16624975236843545
C 3.034933223585092 0.19184470339670318 0.18093924223373703
C 1.6923584895064934 0.6022650042023628 0.03846435086472201
C 1.3640630279990034 2.075409612063642 0.11268903040876307
F 0.3421882544577719 2.3625183886089496 0.9664655381208553
F 2.411750075482841 2.8411597666060686 0.5372501113377514
F 1.0061115649536927 2.5934099816439953 -1.0959124961815003
C -1.6581429334168332 -0.10913157782089093 0.6833173786562978
C -1.2611060659822724 -0.591525634671694 2.0592174807500756
F -0.1746021730082488 0.05292104436433515 2.5689163492828464
F -2.2444259797541855 -0.42954191045637213 2.992554338127016
F -0.9594012429845429 -1.9203099905575876 2.0811028424211604
C -3.005513368343502 0.23218068795403313 0.4397011073643424
H -5.320881718725796 1.1900986292613114 -0.2281697384365147
H -4.972511556782328 1.5275328518386626 -1.841131861852134
H -2.830107805166704 1.0113515020332864 -2.852045507682003
H -0.4807328441868293 0.44005358032775266 -2.474605189300815
H 0.3389661156020435 -2.483364242765847 -0.5161457068799002
H 2.6819827929098743 -3.1462731715594683 -0.2727877216491861
H 5.342343436741046 -0.8806485406662015 0.6811576627742726
H 4.905823179802753 -2.4885843707542343 0.43448071760544543
H 3.8096112900056656 0.9432076886070629 0.33002262977030233
H -3.7350707467710094 0.13113172940176673 1.2424665857004067


--Link1--
%nprocshared=5
%mem=10GB
%Oldchk=NVKGJHAQGWCWDI-UHFFFAOYSA-N_conf_1_0.chk
%Chk=NVKGJHAQGWCWDI-UHFFFAOYSA-N_conf_1_1.chk
# freq B3LYP/6-31G** SCRF=(Solvent=water) volume NMR pop=NPA density=current Geom=AllCheck Guess=Read


--Link1--
%nprocshared=5
%mem=10GB
%Oldchk=NVKGJHAQGWCWDI-UHFFFAOYSA-N_conf_1_1.chk
%Chk=NVKGJHAQGWCWDI-UHFFFAOYSA-N_conf_1_2.chk
# TD(NStates=10, Root=1) B3LYP/6-31G** SCRF=(Solvent=water) volume pop=NPA density=current Geom=AllCheck Guess=Read



