%nprocshared=8
%mem=16GB
%Chk=HYDATEKARGDBKU-UHFFFAOYSA-N_conf_2_0.chk
# opt=CalcFc B3LYP/6-31G** SCRF=(Solvent=water) scf=xqc 

HYDATEKARGDBKU-UHFFFAOYSA-N_conf_2

0 1
N 9.129733008363814 -0.11793253980822231 0.890158195901824
C 7.906638295070438 -0.23936729421405334 0.22121188756903357
C 6.960239111683603 0.7868720832051316 0.29395772746650395
C 5.78538815996865 0.7309020629430746 -0.46145312187667714
C 5.564346624993249 -0.34729369843608515 -1.3187136181874854
O 4.448734267591765 -0.44754586467302726 -2.1176866375259094
C 3.2263050580755377 -0.22652895594015834 -1.5258865586941022
C 2.3237992997397767 0.5780402738431124 -2.2172570929814093
C 1.0524304262948527 0.8154814928448143 -1.6866745209158431
C 0.6571113438383507 0.23953469924083112 -0.466994165227654
C -0.6829151295151051 0.4897633527272105 0.08902726155217552
C -1.5306267000032225 -0.574616315738455 0.4416836153274692
C -2.804479420582444 -0.3393893729151294 0.968130288495641
C -3.253874663394642 0.9703343203849583 1.1357443221320789
O -4.481197062964296 1.270775470325032 1.6801495764338705
C -5.575078450043133 0.6074013470712922 1.1732532068100472
C -5.816056979200846 0.4804744173668728 -0.1951067829580704
C -6.968731715853107 -0.17424268715282398 -0.6390420271211873
C -7.871933942766736 -0.7285774166992002 0.272520716661732
N -9.078044744485071 -1.2777674090665658 -0.17695156582304644
C -7.659180825004951 -0.5214458094525946 1.6385560484701611
C -6.50914281147464 0.1315597063697789 2.0906015691229523
C -2.4215460520555334 2.0401769681743764 0.8161410924504278
C -1.1493982402043719 1.800532870155633 0.2886785932989118
C 1.5757062384748644 -0.588062122153097 0.20178823964818365
C 2.848803711193171 -0.8273133340907898 -0.3248371790584835
C 6.537420005028387 -1.3337224032100952 -1.4608636776157058
C 7.7093629970665996 -1.2699638434646343 -0.7022642034746015
H 9.081433627576393 0.4411342938627355 1.7360734828815403
H 9.606283963308506 -1.0016659362651308 1.0385887365851814
H 7.131617252895635 1.6449621456010555 0.9381048074249292
H 5.06307521594522 1.5386213095361854 -0.38851840319281933
H 2.6081729152434066 1.0228500976642014 -3.1669691213203026
H 0.361146620958117 1.445104242706329 -2.2434524893997536
H -1.20385161061214 -1.6032563545788858 0.3010607815210224
H -3.4334172625836676 -1.180726842137544 1.245391892352375
H -5.127349352355644 0.9022611203924245 -0.9213739713712836
H -7.156917534128477 -0.24280878856284635 -1.7071724977924225
H -9.027095649223451 -1.6699372639076944 -1.1119398955914388
H -9.511247817981873 -1.9139064482995778 0.48491925230522887
H -8.390646724514827 -0.8650414433719747 2.3649587245440804
H -6.349520395401819 0.2758676789011216 3.155361184213411
H -2.7614660427607274 3.0599806740772406 0.9737376621433028
H -0.5133898723384913 2.6498464441585674 0.046874980123334097
H 1.3054395648636254 -1.050820874209717 1.1491104045126197
H 3.533169739373306 -1.4831941073132702 0.20600170856605945
H 6.390589087711697 -2.1461597218848034 -2.1666499409348328
H 8.470162464193145 -2.0330894073249195 -0.8419784874512392


--Link1--
%nprocshared=8
%mem=16GB
%Oldchk=HYDATEKARGDBKU-UHFFFAOYSA-N_conf_2_0.chk
%Chk=HYDATEKARGDBKU-UHFFFAOYSA-N_conf_2_1.chk
# freq B3LYP/6-31G** SCRF=(Solvent=water) volume NMR pop=NPA density=current Geom=AllCheck Guess=Read


--Link1--
%nprocshared=8
%mem=16GB
%Oldchk=HYDATEKARGDBKU-UHFFFAOYSA-N_conf_2_1.chk
%Chk=HYDATEKARGDBKU-UHFFFAOYSA-N_conf_2_2.chk
# TD(NStates=10, Root=1) B3LYP/6-31G** SCRF=(Solvent=water) volume pop=NPA density=current Geom=AllCheck Guess=Read



