%nprocshared=8
%mem=16GB
%Chk=HYDATEKARGDBKU-UHFFFAOYSA-N_conf_1_0.chk
# opt=CalcFc B3LYP/6-31G** SCRF=(Solvent=water) scf=xqc 

HYDATEKARGDBKU-UHFFFAOYSA-N_conf_1

0 1
N 8.92131766167616 1.3312284100131173 0.993844253174533
C 7.865346087015919 0.6069448950284133 0.4287779811201401
C 6.7171184402195445 1.2682179939113518 -0.01697541011752826
C 5.608992312668215 0.5481590233184543 -0.4731184292827047
C 5.623736312092745 -0.846113111950832 -0.42766063437070767
O 4.58315805192145 -1.6189070666590597 -0.8889046761848615
C 3.312235952426491 -1.2847494145823741 -0.4807892701913824
C 2.9918996552072894 -0.9885370681963772 0.8441132254607683
C 1.6691683971526654 -0.6954902946881567 1.1910925044208223
C 0.6453028827797732 -0.7092274688553118 0.2281408724458514
C -0.7475839528376573 -0.40355499663877864 0.5956164964803927
C -1.383529526778516 -1.0802104299549515 1.650647491409284
C -2.70772759842868 -0.7949551253129581 1.99645572423344
C -3.4215260595913315 0.16356991575366178 1.281375992354822
O -4.710299339956879 0.4194988041419018 1.6902263800995696
C -5.675629104128152 0.5084360571531327 0.7139893834097085
C -6.592687693457433 1.5513954590498593 0.8212207553738883
C -7.617326662876434 1.6770389994941566 -0.12063253432097942
C -7.717767922294568 0.7820342825139716 -1.1895669848585608
N -8.811215199273216 0.8448172681730121 -2.060483698850591
C -6.841828339888539 -0.3061960398445264 -1.2383687899812583
C -5.81461996542876 -0.43984197804512654 -0.2997382088863438
C -2.8038811490867768 0.8668311953853862 0.24717847113162392
C -1.4796849658441318 0.5771089252162045 -0.09616658963378197
C 0.9888259367059185 -1.0322641200898852 -1.0958561288253656
C 2.3096973434800514 -1.325689952074974 -1.446983429045266
C 6.749005272400118 -1.5162380898831542 0.047357226600325035
C 7.852608613937581 -0.7889689340007655 0.5007611844723208
H 9.806526459880132 0.8344740708673865 0.9919172989711921
H 9.009366620252752 2.2764632140488015 0.6343491330309019
H 6.677024301391301 2.3540308458754957 -0.01980235917965931
H 4.741749792649993 1.0821197023989313 -0.850795519265478
H 3.7590221305136886 -0.9855116961089556 1.613545883712717
H 1.4428574927995284 -0.44786959779995295 2.226290803252331
H -0.8505161892195199 -1.8479551612621186 2.2081961185910695
H -3.181853673199886 -1.3267976426706125 2.816740869370398
H -6.517550203942701 2.2605452348878874 1.6404396011741313
H -8.339669494573373 2.4810016457415256 -0.009734668089138027
H -8.650801507184228 0.3896397742363264 -2.9533298003873205
H -9.19867041252835 1.776808063953953 -2.166927515062541
H -6.954773664273532 -1.0658118280131268 -2.0070368251214945
H -5.144659615436379 -1.2926944982289341 -0.3569600274781373
H -3.339139859917422 1.644162294551454 -0.29088709222601017
H -1.0136650422731064 1.1383677413519773 -0.9037269027105554
H 0.22053796680214677 -1.0740655675613224 -1.865487356017342
H 2.5537879181965213 -1.5849953393059957 -2.473325126066058
H 6.761296367644472 -2.6019119169429956 0.08318048680144616
H 8.70602517260446 -1.3243364783948526 0.9074805302162288


--Link1--
%nprocshared=8
%mem=16GB
%Oldchk=HYDATEKARGDBKU-UHFFFAOYSA-N_conf_1_0.chk
%Chk=HYDATEKARGDBKU-UHFFFAOYSA-N_conf_1_1.chk
# freq B3LYP/6-31G** SCRF=(Solvent=water) volume NMR pop=NPA density=current Geom=AllCheck Guess=Read


--Link1--
%nprocshared=8
%mem=16GB
%Oldchk=HYDATEKARGDBKU-UHFFFAOYSA-N_conf_1_1.chk
%Chk=HYDATEKARGDBKU-UHFFFAOYSA-N_conf_1_2.chk
# TD(NStates=10, Root=1) B3LYP/6-31G** SCRF=(Solvent=water) volume pop=NPA density=current Geom=AllCheck Guess=Read



