%nprocshared=8
%mem=16GB
%Chk=HYDATEKARGDBKU-UHFFFAOYSA-N_conf_4_0.chk
# opt=CalcFc B3LYP/6-31G** SCRF=(Solvent=water) scf=xqc 

HYDATEKARGDBKU-UHFFFAOYSA-N_conf_4

0 1
N -8.946135422150558 1.5807446053918728 0.302462870635762
C -7.875660080993731 0.6888889377402749 0.4342467948333961
C -7.886668911364313 -0.5295427574356463 -0.2508848708825079
C -6.773436160557654 -1.3737755771899647 -0.2226993998533006
C -5.6173332727190335 -0.9749637567543592 0.4442856986053101
O -4.565177259098368 -1.861103834837411 0.461967856965107
C -3.3162008401273573 -1.3649260791330162 0.16599573949949012
C -2.2616970013107283 -1.783037641850937 0.9741381739572926
C -0.9616939385724168 -1.3428444461820217 0.708481015025993
C -0.6924046549568682 -0.49065376769246666 -0.37635360057538575
C 0.6771742892735613 -0.026513597778848815 -0.6541821352531243
C 0.9616612374336474 1.3420838803950963 -0.8012122928986415
C 2.2616595531381667 1.7841310086394395 -1.063713579791959
C 3.301289808737778 0.8632638818110044 -1.1688235860159129
O 4.550278542498583 1.3614098607313065 -1.4613472700041283
C 5.613760413223685 0.8592395923069631 -0.7475567488800964
C 5.608747256646653 0.7585364484403302 0.6439461142627231
C 6.737203837444883 0.2682005159526165 1.3073878223255713
C 7.894088347770059 -0.06751902916303212 0.5978274910544186
N 8.973460680673297 -0.6692921113961819 1.2547062572940417
C 7.872264958634423 0.005781549826127917 -0.7979738454058108
C 6.748388007407559 0.49506791033876324 -1.4690355334283638
C 3.0393310585542173 -0.5017230695476654 -1.051003809716747
C 1.7376547875805248 -0.9394970708479781 -0.7874295386191822
C -1.7683311072504915 -0.1002590114723394 -1.1923625606382025
C -3.0701013747077757 -0.5389617532372741 -0.930774924786696
C -5.579874433753672 0.254150140497857 1.1032786283821794
C -6.69792309663726 1.0925100953286713 1.0703343864543622
H -9.837241137027528 1.1282432473917323 0.12438453064032233
H -9.004316440213758 2.2647698147106454 1.0502841321029566
H -8.76637724559583 -0.8353105159948981 -0.8105681585142703
H -6.803193128619532 -2.3302230625987455 -0.7366718303333892
H -2.4499293535961204 -2.4449265273732297 1.8148972526268592
H -0.15497597964976959 -1.6653616015090855 1.3638466329168837
H 0.16718691163967134 2.0793189305527013 -0.7033473743128171
H 2.4616768386644576 2.8458499440087444 -1.178384921751862
H 4.733653522079764 1.0488273034619664 1.2179990582491198
H 6.706087037245022 0.1569468091324084 2.387851635005328
H 9.05832559623724 -0.404781883288107 2.2311036329696665
H 9.853874974894074 -0.588109471513283 0.7558751214622758
H 8.734368667723595 -0.3141115945244098 -1.3768360885843582
H 6.752904153582419 0.5724281277697447 -2.552460676286058
H 3.8352789118286656 -1.2317439438263713 -1.169992829505953
H 1.5521394609791428 -2.00871409811815 -0.7039734537943695
H -1.5954732484951717 0.5395740865751157 -2.0556918026116056
H -3.878684039062677 -0.23781374977098615 -1.591147475967671
H -4.687581699892647 0.5715224280550021 1.6349716256952023
H -6.642049027538885 2.0642208339776316 1.5534657812037158


--Link1--
%nprocshared=8
%mem=16GB
%Oldchk=HYDATEKARGDBKU-UHFFFAOYSA-N_conf_4_0.chk
%Chk=HYDATEKARGDBKU-UHFFFAOYSA-N_conf_4_1.chk
# freq B3LYP/6-31G** SCRF=(Solvent=water) volume NMR pop=NPA density=current Geom=AllCheck Guess=Read


--Link1--
%nprocshared=8
%mem=16GB
%Oldchk=HYDATEKARGDBKU-UHFFFAOYSA-N_conf_4_1.chk
%Chk=HYDATEKARGDBKU-UHFFFAOYSA-N_conf_4_2.chk
# TD(NStates=10, Root=1) B3LYP/6-31G** SCRF=(Solvent=water) volume pop=NPA density=current Geom=AllCheck Guess=Read



