%nprocshared=8
%mem=16GB
%Chk=HYDATEKARGDBKU-UHFFFAOYSA-N_conf_3_0.chk
# opt=CalcFc B3LYP/6-31G** SCRF=(Solvent=water) scf=xqc 

HYDATEKARGDBKU-UHFFFAOYSA-N_conf_3

0 1
N 8.02672963597605 -2.6709506975316097 -1.7750518675547315
C 7.167416506948314 -1.645093223749471 -1.3659166713872164
C 6.270560409637069 -1.8565620083308427 -0.31471172300849815
C 5.490126635852127 -0.8081118334976793 0.18136054403953172
C 5.624918172110997 0.47094505244180174 -0.35914146368834254
O 4.917023523606809 1.554911496459505 0.10629151384843531
C 3.560362551511515 1.3985474055205807 0.27425020793317517
C 2.7377209577708608 0.8375134359693814 -0.7025314213201695
C 1.360571393735392 0.7416168822174694 -0.4799127600309492
C 0.7823101510855027 1.2181329367567342 0.7093755778404585
C -0.6681677983936022 1.115343150003203 0.9398294905079466
C -1.4296305666569813 2.246898544523106 1.2792141513977733
C -2.807131175228411 2.1499781758653995 1.4968241544771106
C -3.446870089465209 0.9201012441333244 1.3632970588000557
O -4.797839939429561 0.8851307024292404 1.6220426974927105
C -5.5928744418265275 0.1976269833767609 0.7340826241669778
C -6.577410090359502 -0.6279751784748011 1.2717728310055312
C -7.439370519771215 -1.3277341321736533 0.4228837953441861
C -7.3080161655195806 -1.2310983445643982 -0.9652648558839978
N -8.246464784240645 -1.8408019722753326 -1.8052956262260391
C -6.370791644198999 -0.3364231406483975 -1.489885172585461
C -5.504936595877277 0.36749456838550676 -0.6477954940721369
C -2.7082870732818582 -0.2214106441423937 1.051562688607466
C -1.330869126587658 -0.11974099519209075 0.8334418742665894
C 1.6284517823286209 1.801309410856297 1.6681765867746832
C 3.0058820163212006 1.8979229018370332 1.4502053884628605
C 6.573816489882275 0.7106313138964497 -1.350326216288057
C 7.350284132933363 -0.34300971091672733 -1.840293576096535
H 7.648033470803877 -3.6028415708731205 -1.6394463078996586
H 8.408402769511778 -2.54098412639678 -2.7066073743761327
H 6.175000210149295 -2.8418921627457765 0.1334371604547905
H 4.799300102670489 -0.9947751022336047 0.9984152016201708
H 3.154661659554048 0.48075937147116155 -1.6400442205191545
H 0.7338723638526482 0.3048765762289385 -1.2550900574037815
H -0.9521767151434849 3.220801145880962 1.3682510974906663
H -3.3791874461173137 3.034854257789242 1.7620423328285275
H -6.681232524074351 -0.7212082393791275 2.348992148881958
H -8.218084148717907 -1.948655959283846 0.8573377839151463
H -7.9178684413798655 -1.9820106519069556 -2.7552531694249414
H -8.667128538748537 -2.6773515817064433 -1.4135573559571746
H -6.308616434203986 -0.17517275102868898 -2.5625690526082683
H -4.784066920212389 1.057518471001745 -1.0770520194426012
H -3.1910259757874115 -1.1923006690182683 0.9841233024847552
H -0.7702483927764944 -1.0215407728293946 0.5951822143018075
H 1.2177049512741578 2.1791786894872933 2.602454618151497
H 3.644121735787861 2.3554147998173103 2.201124011637428
H 6.717235022088164 1.7161957477208438 -1.7352104199447833
H 8.103788902605203 -0.13605779516958244 -2.5953053838162186


--Link1--
%nprocshared=8
%mem=16GB
%Oldchk=HYDATEKARGDBKU-UHFFFAOYSA-N_conf_3_0.chk
%Chk=HYDATEKARGDBKU-UHFFFAOYSA-N_conf_3_1.chk
# freq B3LYP/6-31G** SCRF=(Solvent=water) volume NMR pop=NPA density=current Geom=AllCheck Guess=Read


--Link1--
%nprocshared=8
%mem=16GB
%Oldchk=HYDATEKARGDBKU-UHFFFAOYSA-N_conf_3_1.chk
%Chk=HYDATEKARGDBKU-UHFFFAOYSA-N_conf_3_2.chk
# TD(NStates=10, Root=1) B3LYP/6-31G** SCRF=(Solvent=water) volume pop=NPA density=current Geom=AllCheck Guess=Read



