%nprocshared=3
%mem=6GB
%Chk=VHRGRCVQAFMJIZ-UHFFFAOYSA-N_conf_3_0.chk
# opt=CalcFc B3LYP/6-31G** SCRF=(Solvent=water) scf=xqc 

VHRGRCVQAFMJIZ-UHFFFAOYSA-N_conf_3

0 1
N 3.3529338253811325 -0.20670783486071365 -0.7083159355784981
C 2.371231942449486 0.5711072310365257 0.03753099185860848
C 0.959451513702122 0.06366281079148525 -0.2565833834893446
C -0.0886426898627493 0.8764227525553495 0.5079739085390421
C -1.5302562856187396 0.4869890121042872 0.16539770332484363
C -1.8973080348944635 -0.9274318594436524 0.6156390190425718
N -3.303624848126775 -1.2120713092442352 0.34763719765960954
H 4.290848764386707 0.1107067011570017 -0.4665103994467839
H 3.302439817829878 -1.1854840968493767 -0.42805689410358766
H 2.5854345152554847 0.4958053750231275 1.10928692321691
H 2.4604377026753355 1.6247389703586819 -0.2478371163922959
H 0.7588845035349151 0.1294462125673213 -1.3333355357836432
H 0.8888588408910622 -0.9939256141600862 0.023072244631607532
H 0.04218843031382484 1.9399365721965491 0.2720508324390339
H 0.07462181591671466 0.7703349555167246 1.58738265489807
H -1.6901783144070377 0.5903954042676264 -0.9152274918202935
H -2.2002158677562202 1.206887897045021 0.6531268880016488
H -1.7100147235317076 -1.044775915986802 1.6883034229626264
H -1.2899826817305637 -1.6722695288189586 0.09266893749574405
H -3.4889398266161686 -1.1023202677474913 -0.6490368495682827
H -3.888168399792047 -0.521447467508377 0.8172718967934769


--Link1--
%nprocshared=3
%mem=6GB
%Oldchk=VHRGRCVQAFMJIZ-UHFFFAOYSA-N_conf_3_0.chk
%Chk=VHRGRCVQAFMJIZ-UHFFFAOYSA-N_conf_3_1.chk
# freq B3LYP/6-31G** SCRF=(Solvent=water) volume NMR pop=NPA density=current Geom=AllCheck Guess=Read


--Link1--
%nprocshared=3
%mem=6GB
%Oldchk=VHRGRCVQAFMJIZ-UHFFFAOYSA-N_conf_3_1.chk
%Chk=VHRGRCVQAFMJIZ-UHFFFAOYSA-N_conf_3_2.chk
# TD(NStates=10, Root=1) B3LYP/6-31G** SCRF=(Solvent=water) volume pop=NPA density=current Geom=AllCheck Guess=Read



