%nprocshared=3
%mem=6GB
%Chk=VHRGRCVQAFMJIZ-UHFFFAOYSA-N_conf_1_0.chk
# opt=CalcFc B3LYP/6-31G** SCRF=(Solvent=water) scf=xqc 

VHRGRCVQAFMJIZ-UHFFFAOYSA-N_conf_1

0 1
N 3.345165670155327 -0.7650046734822603 0.3671607320621858
C 2.3760333213100924 -0.13931351618957014 -0.5240830356539897
C 1.0228319787763847 -0.006296391707345712 0.174686758292921
C -0.006874091752564773 0.6608582662891664 -0.74086662143818
C -1.3515426018258085 0.9239416679193143 -0.055358996117296
C -2.1016084325738635 -0.3560106508622189 0.31498421280341665
N -3.4120039349784257 -0.048306380384063735 0.8795657565274377
H 4.227772402190501 -0.8905205593663692 -0.12696234244386032
H 3.026283358561119 -1.6989937642957045 0.622260284250619
H 2.747766722355264 0.8482490193351262 -0.8174551197671378
H 2.275468306847526 -0.7422310509693023 -1.433253405526557
H 1.1356783412247513 0.586639742358996 1.091006526544279
H 0.6693743229096546 -1.0003498272318745 0.47235958529055583
H 0.3928118075392084 1.622180272329749 -1.0872030728979998
H -0.16366359441506953 0.04414152696322272 -1.6342368786602646
H -1.9693249712407912 1.5198127861405843 -0.7396558711075835
H -1.1918147058525128 1.5379177064163387 0.8399283650135789
H -2.2362047491849335 -0.9865725378566318 -0.5703027743718101
H -1.5383972312937373 -0.9382117943045218 1.0504838718832337
H -3.297437475523154 0.5416384817545125 1.7033290244067534
H -3.9503144432289607 0.504810086158031 0.2136130009096855


--Link1--
%nprocshared=3
%mem=6GB
%Oldchk=VHRGRCVQAFMJIZ-UHFFFAOYSA-N_conf_1_0.chk
%Chk=VHRGRCVQAFMJIZ-UHFFFAOYSA-N_conf_1_1.chk
# freq B3LYP/6-31G** SCRF=(Solvent=water) volume NMR pop=NPA density=current Geom=AllCheck Guess=Read


--Link1--
%nprocshared=3
%mem=6GB
%Oldchk=VHRGRCVQAFMJIZ-UHFFFAOYSA-N_conf_1_1.chk
%Chk=VHRGRCVQAFMJIZ-UHFFFAOYSA-N_conf_1_2.chk
# TD(NStates=10, Root=1) B3LYP/6-31G** SCRF=(Solvent=water) volume pop=NPA density=current Geom=AllCheck Guess=Read



