%nprocshared=3
%mem=6GB
%Chk=IMNIMPAHZVJRPE-UHFFFAOYSA-N_conf_0_0.chk
# opt=CalcFc B3LYP/6-31G** SCRF=(Solvent=water) scf=xqc 

IMNIMPAHZVJRPE-UHFFFAOYSA-N_conf_0

0 1
N -0.01087518176142634 -1.2663196795861316 -0.4434522807527411
C 1.2696233015459628 -0.5700930155584542 -0.7547598060206001
C 1.2822247872203587 0.8969012012127591 -0.24103177150061122
N 0.010873607465625027 1.266321915280993 0.44345428733766934
C -1.0853803963720063 1.0204914389106416 -0.5358935772985259
C -1.097973498634216 -0.4465012680782259 -1.049615873044095
C -0.1779527755895608 0.28310193599036887 1.5475138431370936
C -0.1905457538023867 -1.1838964370983676 1.033791369440109
H 1.4356305208531137 -0.5860544600805812 -1.8391217703031137
H 2.1023148535097533 -1.1278298553861699 -0.308424750621024
H 1.4542614737618864 1.583309367427553 -1.0794232933899657
H 2.1209691359202907 1.0415279417092098 0.451245658856787
H -0.9757961908408923 1.710150987305876 -1.3820678221271403
H -2.0485942600520177 1.2591817112024348 -0.0680323540060283
H -2.067202790474241 -0.91017370849593 -0.8276970901967
H -0.9944149245479896 -0.45919833984934627 -2.141752866167117
H 0.622260154378954 0.41155380034718964 2.2869807260259933
H -1.117227451779279 0.502361778338637 2.0703315522820724
H 0.603640585494134 -1.757807469337395 1.5272946677142192
H -1.1358351962960023 -1.6670278442551099 1.3106611506336974


--Link1--
%nprocshared=3
%mem=6GB
%Oldchk=IMNIMPAHZVJRPE-UHFFFAOYSA-N_conf_0_0.chk
%Chk=IMNIMPAHZVJRPE-UHFFFAOYSA-N_conf_0_1.chk
# freq B3LYP/6-31G** SCRF=(Solvent=water) volume NMR pop=NPA density=current Geom=AllCheck Guess=Read


--Link1--
%nprocshared=3
%mem=6GB
%Oldchk=IMNIMPAHZVJRPE-UHFFFAOYSA-N_conf_0_1.chk
%Chk=IMNIMPAHZVJRPE-UHFFFAOYSA-N_conf_0_2.chk
# TD(NStates=10, Root=1) B3LYP/6-31G** SCRF=(Solvent=water) volume pop=NPA density=current Geom=AllCheck Guess=Read



