%nprocshared=4
%mem=8GB
%Chk=HFACYLZERDEVSX-UHFFFAOYSA-N_conf_0_0.chk
# opt=CalcFc B3LYP/6-31G** SCRF=(Solvent=water) scf=xqc 

HFACYLZERDEVSX-UHFFFAOYSA-N_conf_0

0 1
N -4.952230547489646 0.21593941857897914 -0.388388277627104
C -3.568401293377949 0.15320745915669448 -0.19108450638586502
C -2.8304225080202863 -0.9121935182363361 -0.7067470789245138
C -1.433264149232431 -0.9258027947830378 -0.6164740153754215
C -0.7342018287851056 0.14876969606624282 -0.04680963339626153
C 0.7344913681791716 0.1352366107028433 0.0462080565675677
C 1.4108847262491357 -0.9278900344198192 0.6627842405317971
C 2.808059407671269 -0.9399500606177479 0.7530255972093591
C 3.568214827958111 0.08592547243163332 0.1914716438716113
N 4.953154263474406 0.12790748897060727 0.38648067836678185
C 2.90232171457 1.1753557748979728 -0.3701539702127997
C 1.5052274239224903 1.191771730442438 -0.46111416376802017
C -1.4821342937182072 1.2426394111777426 0.41332338388618284
C -2.8793049273778 1.2518650322424945 0.32252301982335374
H -5.396830895454675 -0.6937157836124848 -0.45985267316644146
H -5.430798614681551 0.8285650448932489 0.2643109498501046
H -3.3347663622041 -1.7460331690430688 -1.1873252414630457
H -0.8903214901412558 -1.7775668892235836 -1.0208371982216353
H 0.8501981806335163 -1.7493987849534436 1.1038654677905666
H 3.294839063271973 -1.7624086833890973 1.269952855559418
H 5.444295595291297 0.701030857007705 -0.29224115652933536
H 5.378406468826824 -0.7869578859017315 0.49798078142586427
H 3.4640440873039307 2.0250111405636817 -0.7485686460132102
H 1.0214480720436556 2.0433720371900055 -0.9349604200377498
H -0.9801924724565827 2.1037584479016176 0.849584709702886
H -3.4227158164561446 2.129015756446964 0.6630455965359668


--Link1--
%nprocshared=4
%mem=8GB
%Oldchk=HFACYLZERDEVSX-UHFFFAOYSA-N_conf_0_0.chk
%Chk=HFACYLZERDEVSX-UHFFFAOYSA-N_conf_0_1.chk
# freq B3LYP/6-31G** SCRF=(Solvent=water) volume NMR pop=NPA density=current Geom=AllCheck Guess=Read


--Link1--
%nprocshared=4
%mem=8GB
%Oldchk=HFACYLZERDEVSX-UHFFFAOYSA-N_conf_0_1.chk
%Chk=HFACYLZERDEVSX-UHFFFAOYSA-N_conf_0_2.chk
# TD(NStates=10, Root=1) B3LYP/6-31G** SCRF=(Solvent=water) volume pop=NPA density=current Geom=AllCheck Guess=Read



