%nprocshared=4
%mem=8GB
%Chk=HFACYLZERDEVSX-UHFFFAOYSA-N_conf_2_0.chk
# opt=CalcFc B3LYP/6-31G** SCRF=(Solvent=water) scf=xqc 

HFACYLZERDEVSX-UHFFFAOYSA-N_conf_2

0 1
N 4.957538227442819 -0.041760433816234864 0.31958759404194503
C 3.5605624232903375 0.0333433483862523 0.29633815586942425
C 2.794040651019989 -0.8604528567094964 1.04413169957397
C 1.3979799832476678 -0.8699207911805797 0.937878384249634
C 0.7341903375947597 -0.01417916665543478 0.046343460700965615
C -0.7329264867420244 -0.02424103388363148 -0.06827187883028066
C -1.5500996744710178 0.13384429297738468 1.0608655720557054
C -2.9457825196688483 0.12349444637104781 0.9495918078336747
C -3.5615386318690563 -0.003658611700884227 -0.2955678196290844
N -4.95181012539703 -0.13231709334703828 -0.38674731394710077
C -2.758376415272145 -0.22347651830747023 -1.4145996593387977
C -1.3623777770243972 -0.21213477103970904 -1.3077196467470982
C 1.5181486745903112 0.8372284732726065 -0.7462646363760339
C 2.9139220015485856 0.8448349032168793 -0.63590890128399
H 5.333949883332747 -0.39152254262623604 1.1949478811064467
H 5.4182657961742615 0.8096134153722977 0.014430084301707004
H 3.274946257687566 -1.5633401743833102 1.7189116350338562
H 0.8311817874718429 -1.5749550162030173 1.542554912546783
H -1.1041549823097163 0.2661823616651588 2.044362363801671
H -3.5460959576371605 0.2197052428693447 1.8501347953559264
H -5.4559944314092546 0.33707233912877066 0.3587059501591652
H -5.324061091078566 0.09096647256154246 -1.3042700467024404
H -3.210067864025657 -0.40847664618244833 -2.3853712904745215
H -0.7668954314645702 -0.37888708118365766 -2.2030192579074863
H 1.045843513613426 1.5060490739100147 -1.462681303342732
H 3.4896118513553613 1.4969883674877165 -1.2869743072561393


--Link1--
%nprocshared=4
%mem=8GB
%Oldchk=HFACYLZERDEVSX-UHFFFAOYSA-N_conf_2_0.chk
%Chk=HFACYLZERDEVSX-UHFFFAOYSA-N_conf_2_1.chk
# freq B3LYP/6-31G** SCRF=(Solvent=water) volume NMR pop=NPA density=current Geom=AllCheck Guess=Read


--Link1--
%nprocshared=4
%mem=8GB
%Oldchk=HFACYLZERDEVSX-UHFFFAOYSA-N_conf_2_1.chk
%Chk=HFACYLZERDEVSX-UHFFFAOYSA-N_conf_2_2.chk
# TD(NStates=10, Root=1) B3LYP/6-31G** SCRF=(Solvent=water) volume pop=NPA density=current Geom=AllCheck Guess=Read



