%nprocshared=4
%mem=8GB
%Chk=MERLDGDYUMSLAY-UHFFFAOYSA-N_conf_0_0.chk
# opt=CalcFc B3LYP/6-31G** SCRF=(Solvent=water) scf=xqc 

MERLDGDYUMSLAY-UHFFFAOYSA-N_conf_0

0 1
N -4.236104897764123 -1.2159418440475331 1.7875635360302402
C -3.477915933548022 -0.8127952152147979 0.6829493507575878
C -3.7317961392657875 0.41371739717202455 0.06471842364726144
C -2.9045322656808237 0.8826546576761337 -0.9612123604405539
C -1.7825198786991945 0.14807569644993643 -1.35073753645462
S -0.7138254634191388 0.7366231538981394 -2.649708931643321
S 0.3978894032547927 2.158627186861983 -1.6600146260964026
C 1.6216961493077477 1.1532703069826162 -0.8430832321461321
C 1.4809630209164912 0.844161914861643 0.511715939456676
C 2.433952003450846 0.04850283735895212 1.1557524667856747
C 3.5625543683923198 -0.4081903438858611 0.4716155389119245
N 4.446839975210703 -1.3007991127596952 1.087114203455189
C 3.6709365065278536 -0.13967051795078192 -0.8948206909407603
C 2.7207626256165907 0.6544010477795598 -1.545529135859795
C -1.494745026328345 -1.053717012555262 -0.6998039078159466
C -2.325314864149035 -1.516018554859762 0.3260982274183069
H -4.199152625129536 -2.214478365837236 1.9674796093046447
H -5.187325339009617 -0.8612215631553058 1.783796312155349
H -4.579129699412894 1.0187768985822536 0.37603882874486627
H -3.135344258053478 1.8318720345658224 -1.438257469979756
H 0.6186717608036878 1.1982213322870758 1.0721573181802295
H 2.283464550680447 -0.21069664003558447 2.2003629474110538
H 4.497036925461442 -1.197706334224327 2.095906859211957
H 5.366297119684812 -1.3291677206844348 0.6576320165326114
H 4.499007137922082 -0.54685262769881 -1.4688358729260325
H 2.8388687572903706 0.8632697689834582 -2.6058520603901614
H -0.6109601473526144 -1.6285802697597662 -0.9671150532352143
H -2.0602737667056243 -2.433897146766913 0.8440692999253985


--Link1--
%nprocshared=4
%mem=8GB
%Oldchk=MERLDGDYUMSLAY-UHFFFAOYSA-N_conf_0_0.chk
%Chk=MERLDGDYUMSLAY-UHFFFAOYSA-N_conf_0_1.chk
# freq B3LYP/6-31G** SCRF=(Solvent=water) volume NMR pop=NPA density=current Geom=AllCheck Guess=Read


--Link1--
%nprocshared=4
%mem=8GB
%Oldchk=MERLDGDYUMSLAY-UHFFFAOYSA-N_conf_0_1.chk
%Chk=MERLDGDYUMSLAY-UHFFFAOYSA-N_conf_0_2.chk
# TD(NStates=10, Root=1) B3LYP/6-31G** SCRF=(Solvent=water) volume pop=NPA density=current Geom=AllCheck Guess=Read



