%nprocshared=4
%mem=8GB
%Chk=MERLDGDYUMSLAY-UHFFFAOYSA-N_conf_1_0.chk
# opt=CalcFc B3LYP/6-31G** SCRF=(Solvent=water) scf=xqc 

MERLDGDYUMSLAY-UHFFFAOYSA-N_conf_1

0 1
N 4.440362073462251 -0.5860980490040717 -1.3786920655020947
C 3.5635854851744706 -0.30037090186109267 -0.3266030111473431
C 3.618682571530019 0.9366988769198755 0.31947601048101226
C 2.670931144494604 1.2802066485251673 1.2892700600012934
C 1.625150297554296 0.4052942449835106 1.591558237141562
S 0.40368560336363973 0.8294303016493585 2.8181302095595924
S -0.7404263772733316 2.210616272537013 1.8083870231657169
C -1.8040695750139109 1.1559065352312554 0.843501867392452
C -1.5142402979263818 0.9093913610528652 -0.500300100270094
C -2.3485450399896526 0.08406199857070827 -1.2611889134560272
C -3.459637940931717 -0.5346678318270585 -0.6840584277094744
N -4.353923792289038 -1.2604820496940203 -1.4777531644181128
C -3.780357309976787 -0.23208564359419623 0.641296608727188
C -2.9496799369216453 0.5916159204555469 1.4083515089566538
C 1.5355675462548632 -0.810728626592994 0.9103633800083009
C 2.4864237412340726 -1.1478058355641625 -0.058389751432666656
H 4.543999388346353 -1.5778974971645983 -1.569039422525413
H 5.335952802839983 -0.1133021351729196 -1.306528364944655
H 4.402957215600209 1.6480399504333363 0.07458019476712871
H 2.7485078069920563 2.2416161407778916 1.7909311350679338
H -0.6421025423092972 1.3596293921288511 -0.9688746269947122
H -2.118799817902615 -0.0706112033771079 -2.312058159217445
H -4.931864267275531 -1.9126657406398864 -0.9572304948714423
H -3.9274417311590333 -1.6878292269428317 -2.2937862419369504
H -4.683104204220823 -0.6357279215551571 1.091965339543191
H -3.21219681511169 0.7954556062845544 2.4434082171373994
H 0.7148720829783003 -1.4955986922974922 1.110011137502853
H 2.375711888476228 -2.0820918942622337 -0.6021943103311435


--Link1--
%nprocshared=4
%mem=8GB
%Oldchk=MERLDGDYUMSLAY-UHFFFAOYSA-N_conf_1_0.chk
%Chk=MERLDGDYUMSLAY-UHFFFAOYSA-N_conf_1_1.chk
# freq B3LYP/6-31G** SCRF=(Solvent=water) volume NMR pop=NPA density=current Geom=AllCheck Guess=Read


--Link1--
%nprocshared=4
%mem=8GB
%Oldchk=MERLDGDYUMSLAY-UHFFFAOYSA-N_conf_1_1.chk
%Chk=MERLDGDYUMSLAY-UHFFFAOYSA-N_conf_1_2.chk
# TD(NStates=10, Root=1) B3LYP/6-31G** SCRF=(Solvent=water) volume pop=NPA density=current Geom=AllCheck Guess=Read



