%nprocshared=2
%mem=4GB
%Chk=AOHJOMMDDJHIJH-VKHMYHEASA-N_conf_1_0.chk
# opt=CalcFc B3LYP/6-31G** SCRF=(Solvent=water) scf=xqc 

AOHJOMMDDJHIJH-VKHMYHEASA-N_conf_1

0 1
C -1.1458502275176108 -0.8287256718354182 -0.48070250643243584
C -0.12931850492000416 0.31413858803407907 -0.4835206256105586
N -0.8390603116380889 1.601146985342332 -0.48370191226348874
C 0.835693407454645 0.24179815541289681 0.7242739445514789
N 1.6496061930861876 -0.9751184344570011 0.735162115712793
H -1.8302869087753006 -0.7464625709940698 -1.332616524665201
H -0.6477416723835343 -1.8006752045767431 -0.5580498174122878
H -1.746429969411128 -0.8284744109820146 0.43582145760458285
H 0.45795522892911283 0.25922251643285676 -1.4081583097424766
H -1.470247423869383 1.6348936578483608 -1.2840467510376954
H -1.4368846679324896 1.656829595109941 0.3410534906911585
H 0.2676771696850115 0.28946156683968116 1.660980707658879
H 1.5084163740963101 1.1078352141961618 0.7092847443183162
H 2.2334862738734143 -0.9922155131969345 -0.100746354039454
H 2.2929850393228057 -0.9336544731742119 1.524966340666513


--Link1--
%nprocshared=2
%mem=4GB
%Oldchk=AOHJOMMDDJHIJH-VKHMYHEASA-N_conf_1_0.chk
%Chk=AOHJOMMDDJHIJH-VKHMYHEASA-N_conf_1_1.chk
# freq B3LYP/6-31G** SCRF=(Solvent=water) volume NMR pop=NPA density=current Geom=AllCheck Guess=Read


--Link1--
%nprocshared=2
%mem=4GB
%Oldchk=AOHJOMMDDJHIJH-VKHMYHEASA-N_conf_1_1.chk
%Chk=AOHJOMMDDJHIJH-VKHMYHEASA-N_conf_1_2.chk
# TD(NStates=10, Root=1) B3LYP/6-31G** SCRF=(Solvent=water) volume pop=NPA density=current Geom=AllCheck Guess=Read



