%nprocshared=2
%mem=4GB
%Chk=AOHJOMMDDJHIJH-VKHMYHEASA-N_conf_0_0.chk
# opt=CalcFc B3LYP/6-31G** SCRF=(Solvent=water) scf=xqc 

AOHJOMMDDJHIJH-VKHMYHEASA-N_conf_0

0 1
C -1.3085947550936232 -1.1426797580580748 -0.23399371290330281
C -0.21309883932390566 -0.22884846478506443 0.3077396921642927
N -0.7803878804749426 1.0849923467523355 0.6458749880456672
C 0.9485288506349849 -0.10557252101189413 -0.7091071775549395
N 1.9212892427685075 0.9296109592357301 -0.3382422829948184
H -1.7549140169331512 -0.7362340989469838 -1.1484924523505193
H -0.9040823558651551 -2.1333408933273836 -0.4677869390010593
H -2.1091024708323696 -1.2765369378575224 0.5020155345119659
H 0.17946019420544165 -0.6690109497145537 1.232985567952675
H -1.5603937867817819 0.9620359543469164 1.2908400490908527
H -0.08186329875839486 1.6289100449295881 1.1491625000279322
H 1.4686246198194286 -1.0665529906529092 -0.7897521995649354
H 0.5589980602770205 0.13561721632037538 -1.7051661896859815
H 1.430567106253678 1.8248664110749018 -0.36558217395878084
H 2.204969330104168 0.7927436816944337 0.6295047962209553


--Link1--
%nprocshared=2
%mem=4GB
%Oldchk=AOHJOMMDDJHIJH-VKHMYHEASA-N_conf_0_0.chk
%Chk=AOHJOMMDDJHIJH-VKHMYHEASA-N_conf_0_1.chk
# freq B3LYP/6-31G** SCRF=(Solvent=water) volume NMR pop=NPA density=current Geom=AllCheck Guess=Read


--Link1--
%nprocshared=2
%mem=4GB
%Oldchk=AOHJOMMDDJHIJH-VKHMYHEASA-N_conf_0_1.chk
%Chk=AOHJOMMDDJHIJH-VKHMYHEASA-N_conf_0_2.chk
# TD(NStates=10, Root=1) B3LYP/6-31G** SCRF=(Solvent=water) volume pop=NPA density=current Geom=AllCheck Guess=Read



