%nprocshared=7
%mem=14GB
%Chk=DXWQPWMYKQYRDS-UHFFFAOYSA-N_conf_2_0.chk
# opt=CalcFc B3LYP/6-31G** SCRF=(Solvent=water) scf=xqc 

DXWQPWMYKQYRDS-UHFFFAOYSA-N_conf_2

0 1
C 5.021278174539212 0.09701045771095664 -0.01650299676586639
N 3.630798504932792 0.16777819008410116 0.10809366799006341
C 2.7916731609515733 -0.7328724548200579 -0.6692167401506577
C 1.344810810463482 -0.3247923489041364 -0.512392228163476
C 0.6622759149353797 0.3157747766971709 -1.5552825466946516
C -0.6725529643572005 0.6996212271729552 -1.3999142928721464
C -1.3461908349846181 0.46107664878459653 -0.19446437939740227
C -2.7929973670860098 0.8634101226172338 -0.022962119946832792
N -3.6291767819167866 -0.3278751871490491 -0.056989569889204415
C -5.020284128975669 -0.1951003810526445 -0.0909932696889454
C -5.703661981508892 0.9337156295778303 0.3763999063380944
C -7.1024790208864506 0.983372501126008 0.3821309807035622
C -7.843446760042864 -0.1107577357258226 -0.0536917466694655
C -7.185136772166838 -1.2586319544649447 -0.4813516228881803
C -5.787679846153024 -1.3013484637059556 -0.48506479462790203
C -0.6628777254921991 -0.17947094277251363 0.8484708784316608
C 0.6703959617789446 -0.5633809095997948 0.6930838655818051
C 5.788921869889322 1.179214209843002 0.43905536167852854
C 7.186251693210269 1.1490535386660619 0.4032140425935205
C 7.844393430437022 0.01730400971430843 -0.06569208415163115
C 7.103495637857376 -1.0842430529001446 -0.48253668718037296
C 5.704811223446859 -1.0476192416699426 -0.44345940583857696
H 3.292789650038631 1.126596392246253 0.08376901683099414
H 2.900983150982105 -1.7682948531404106 -0.32422415937853366
H 3.0703922234595384 -0.7033969138900489 -1.730070294048429
H 1.1656749200244905 0.5199377536288803 -2.497947032592125
H -1.182958948584412 1.187659169048597 -2.2275702588465864
H -2.8971632091510076 1.389913723799711 0.9335993733003362
H -3.0790690151485927 1.560581035977448 -0.8205075868842113
H -3.293913417028333 -1.0149855169158177 -0.7275503058840183
H -5.165118983671361 1.7980816672924014 0.7517869246221932
H -7.609956095715107 1.875380624712162 0.739685296051118
H -8.929230846912276 -0.0745455987650652 -0.04436651963938375
H -7.754334159510279 -2.126545478152364 -0.8026353057658646
H -5.295817206368615 -2.2182394031831665 -0.800779431917001
H -1.173666987169891 -0.38516758280132635 1.7875376285701812
H 1.1881690833193936 -1.047834764280654 1.5190847231867624
H 5.2973708537971245 2.0657561631944845 0.8323927465371856
H 7.755561452713988 2.0062281916323483 0.7519541327783613
H 8.930114571096665 -0.01271844432894253 -0.09085932005494324
H 7.611015027247981 -1.980839783654801 -0.8283608185887049
H 5.166535737707957 -1.9388050216487898 -0.7502490434324518


--Link1--
%nprocshared=7
%mem=14GB
%Oldchk=DXWQPWMYKQYRDS-UHFFFAOYSA-N_conf_2_0.chk
%Chk=DXWQPWMYKQYRDS-UHFFFAOYSA-N_conf_2_1.chk
# freq B3LYP/6-31G** SCRF=(Solvent=water) volume NMR pop=NPA density=current Geom=AllCheck Guess=Read


--Link1--
%nprocshared=7
%mem=14GB
%Oldchk=DXWQPWMYKQYRDS-UHFFFAOYSA-N_conf_2_1.chk
%Chk=DXWQPWMYKQYRDS-UHFFFAOYSA-N_conf_2_2.chk
# TD(NStates=10, Root=1) B3LYP/6-31G** SCRF=(Solvent=water) volume pop=NPA density=current Geom=AllCheck Guess=Read



