%nprocshared=7
%mem=14GB
%Chk=DXWQPWMYKQYRDS-UHFFFAOYSA-N_conf_0_0.chk
# opt=CalcFc B3LYP/6-31G** SCRF=(Solvent=water) scf=xqc 

DXWQPWMYKQYRDS-UHFFFAOYSA-N_conf_0

0 1
C 4.486931144442105 0.6794577829985687 -0.188174255623998
N 3.1702428812639183 0.22011361739597013 -0.28365657659572974
C 2.1878607877432987 0.6389727459081683 0.7058876195549765
C 0.9117226772008041 -0.144338209263694 0.5019463134546468
C 0.06578722003890027 0.15182109211654696 -0.575610600262229
C -1.1092895959544546 -0.5750148591806724 -0.7776061463605792
C -1.4571499531900416 -1.6213194669229631 0.08680813825994417
C -2.7387662329103684 -2.396047404063235 -0.11959654469776872
N -3.8519250865380505 -1.739624024911916 0.5597598372423896
C -4.58482961048541 -0.7370045173819625 -0.08576195697604222
C -5.1776961208946455 0.26974116775779505 0.6921620584807675
C -5.9671152219648915 1.2692074594571807 0.11518038598336351
C -6.204077070725887 1.2620786774795454 -1.2548760107450228
C -5.664948928055137 0.246973604864301 -2.038995344606144
C -4.875621713261393 -0.7505354901730957 -1.4548000746572105
C -0.610747462263473 -1.9175650180556174 1.1650169847725287
C 0.5659003578461755 -1.1911258879750282 1.3663564568529445
C 4.851673752695694 1.857778097562991 0.4735608285480627
C 6.177565660605535 2.3060926204690673 0.47792278229218116
C 7.158582955831376 1.5961698838395304 -0.20728242539761518
C 6.810322495627433 0.44631177836232333 -0.9075707949092241
C 5.484175013484117 0.0033691288336442343 -0.9067294691520439
H 3.125760434667565 -0.7780855760104457 -0.4729184243070774
H 2.564755924627326 0.47068900542057024 1.7226977497295284
H 1.9614690370379975 1.7076863648287164 0.6073952614357027
H 0.3245376176212678 0.953029608003493 -1.2655392551374363
H -1.7560290272915862 -0.3164263580190563 -1.613202182347887
H -2.911438360596663 -2.5782956048608026 -1.1849199127778587
H -2.6208946951444094 -3.394018653247963 0.3207612835254642
H -3.5761225236098997 -1.446296225689613 1.4936799122562152
H -5.021941405066628 0.289531765694496 1.7682446350760417
H -6.40065390536369 2.045200952630033 0.7402249326313604
H -6.820469831237442 2.0339081830750363 -1.7070892567290756
H -5.86825439142689 0.2185116220991781 -3.1061725246250913
H -4.512048388917586 -1.5456411282773073 -2.0973058255192174
H -0.8619800329994292 -2.721030327916759 1.854557272871423
H 1.210447244807272 -1.4478919410881077 2.204289626066929
H 4.113433789807181 2.4569960660500376 0.996883159547428
H 6.437900963478025 3.217802668642801 1.0088856967578632
H 8.18689550616488 1.946759890176688 -0.2085894545253423
H 7.5643450663248855 -0.10307335356722415 -1.46434126657087
H 5.231689026582641 -0.8848697370605717 -1.4807490268385555


--Link1--
%nprocshared=7
%mem=14GB
%Oldchk=DXWQPWMYKQYRDS-UHFFFAOYSA-N_conf_0_0.chk
%Chk=DXWQPWMYKQYRDS-UHFFFAOYSA-N_conf_0_1.chk
# freq B3LYP/6-31G** SCRF=(Solvent=water) volume NMR pop=NPA density=current Geom=AllCheck Guess=Read


--Link1--
%nprocshared=7
%mem=14GB
%Oldchk=DXWQPWMYKQYRDS-UHFFFAOYSA-N_conf_0_1.chk
%Chk=DXWQPWMYKQYRDS-UHFFFAOYSA-N_conf_0_2.chk
# TD(NStates=10, Root=1) B3LYP/6-31G** SCRF=(Solvent=water) volume pop=NPA density=current Geom=AllCheck Guess=Read



