%nprocshared=7
%mem=14GB
%Chk=DXWQPWMYKQYRDS-UHFFFAOYSA-N_conf_3_0.chk
# opt=CalcFc B3LYP/6-31G** SCRF=(Solvent=water) scf=xqc 

DXWQPWMYKQYRDS-UHFFFAOYSA-N_conf_3

0 1
C -4.764236317547941 -0.4291908549023723 -0.010615399857144513
N -3.406163127878826 -0.15478142902455255 -0.19874001964206775
C -2.9150560903378704 1.2032136829387223 -0.011642709071697451
C -1.4054777799421145 1.2007983310220252 -0.08758229074265297
C -0.628785229238382 1.3722758972303715 1.0655506266670045
C 0.7657786349792192 1.3570737757466411 0.98789568701834
C 1.411395740717651 1.1692159725627858 -0.24266366809094117
C 2.920908916800418 1.1407065727044736 -0.31447229956184913
N 3.4055302632884925 -0.09557283055579033 0.28310263650013023
C 4.7621095071935295 -0.4212581959077267 0.18996077612778303
C 5.148448323358719 -1.7481397044902884 0.4312456001042914
C 6.493166061476823 -2.130558896031631 0.4178655581857458
C 7.482784144308099 -1.1806308094420137 0.18951228161265027
C 7.124897767014462 0.1491611781786435 -0.009677605982274247
C 5.776767997638051 0.5253839940263583 0.005572656064335491
C 0.6346590577791941 0.9800802990962917 -1.393002678468242
C -0.7599021749479276 0.9964009156403139 -1.3155248733185245
C -5.774129511960137 0.5330691558728573 -0.12820966690237343
C -7.124060597760818 0.18650324359615997 0.001435584242648744
C -7.488570773350435 -1.1380705017767858 0.22221262671103503
C -6.503768504209276 -2.116907761228119 0.29898071610904414
C -5.157218055229627 -1.7638527455168203 0.1691999511587042
H -2.8126286208805076 -0.8426069270353553 0.2588001983414849
H -3.236378628621316 1.6007130944961596 0.9592465563255709
H -3.3001660399899646 1.872191581004056 -0.7908596108844331
H -1.1027620150611863 1.5134092252539944 2.0344756152138515
H 1.3551693058887697 1.4810865892629936 1.8949155650267409
H 3.3098754933739785 2.0156780845166917 0.22045706183915806
H 3.243420144095757 1.2174866765604244 -1.3604026152081654
H 2.8083074901113023 -0.8881529281777617 0.059780769049358556
H 4.3942915881885 -2.5043677433947638 0.6354174991620899
H 6.763011367650243 -3.1678102478212193 0.596144198120045
H 8.529338839206854 -1.4721830093650783 0.18262963638358667
H 7.893889937349343 0.9009794653463135 -0.16612701853071005
H 5.543664120256056 1.5772523091246797 -0.12564628814986337
H 1.1085707802379872 0.8128540265899574 -2.3577983548983323
H -1.349381668090649 0.8371945621396353 -2.2169759863200746
H -5.535805104501306 1.5729218297144205 -0.3279471533070454
H -7.889260879897735 0.9536361241655795 -0.08241063880067973
H -8.536525698042592 -1.40815596522292 0.31798386212380797
H -6.778796530253165 -3.1572070618116914 0.44940000300942456
H -4.406912133170996 -2.549838975085466 0.20900029097612274


--Link1--
%nprocshared=7
%mem=14GB
%Oldchk=DXWQPWMYKQYRDS-UHFFFAOYSA-N_conf_3_0.chk
%Chk=DXWQPWMYKQYRDS-UHFFFAOYSA-N_conf_3_1.chk
# freq B3LYP/6-31G** SCRF=(Solvent=water) volume NMR pop=NPA density=current Geom=AllCheck Guess=Read


--Link1--
%nprocshared=7
%mem=14GB
%Oldchk=DXWQPWMYKQYRDS-UHFFFAOYSA-N_conf_3_1.chk
%Chk=DXWQPWMYKQYRDS-UHFFFAOYSA-N_conf_3_2.chk
# TD(NStates=10, Root=1) B3LYP/6-31G** SCRF=(Solvent=water) volume pop=NPA density=current Geom=AllCheck Guess=Read



