%nprocshared=7
%mem=14GB
%Chk=DXWQPWMYKQYRDS-UHFFFAOYSA-N_conf_4_0.chk
# opt=CalcFc B3LYP/6-31G** SCRF=(Solvent=water) scf=xqc 

DXWQPWMYKQYRDS-UHFFFAOYSA-N_conf_4

0 1
C -5.0006111348278015 -0.4187489545131221 -0.52210329864325
N -3.6044103255786726 -0.4863993261785448 -0.5174037781046458
C -2.8244771620668137 0.7419173009476312 -0.4679148178603289
C -1.3662245510281474 0.39789407568826274 -0.26867993407220964
C -0.7419042206404584 0.6059355090010308 0.9685663214951458
C 0.6041303208353554 0.2759879864430185 1.1489875945661903
C 1.347838385927387 -0.2794048730265498 0.09913782511397065
C 2.8068026711137115 -0.6286132951193661 0.28358258067522707
N 3.6261665335595015 0.3471427915742335 -0.42070026525045073
C 5.013915716521879 0.33348438052227664 -0.25360975397850843
C 5.743501146686548 1.4710841170083049 -0.6298143093590841
C 7.138909687812451 1.5026900980749003 -0.5490773361667377
C 7.834783293575756 0.37982665601064663 -0.11451812192988187
C 7.134010773554886 -0.7738975671331254 0.22297027712307355
C 5.737031638859017 -0.7989704652986885 0.13925322755695171
C 0.7227503431787219 -0.48751810584611205 -1.1381619012632214
C -0.6217661019844398 -0.1575423725120295 -1.3185229644301724
C -5.726796438286322 -1.5763825316905808 -0.20512855116266018
C -7.123973150200128 -1.5969949174932525 -0.25193954506668587
C -7.822209886364269 -0.46096057699946885 -0.6465638925225522
C -7.1205965087979814 0.6853872358887043 -1.0066387146963336
C -5.721804906158526 0.6990960093383983 -0.9580177712347636
H -3.257561609982108 -1.1894491768542421 0.13032618361988874
H -2.924290608888466 1.3091690253153137 -1.4013731367073599
H -3.166945477416792 1.3856888043616986 0.3519992222706008
H -1.2999314949915235 1.0279428532396468 1.8017743762371232
H 1.0681407552614628 0.45513381681675996 2.1166104308168614
H 2.9752550059839518 -1.6393782534637509 -0.1076319257227567
H 3.0510500760358266 -0.6398115157496465 1.3532350319789435
H 3.2427962881924595 1.287154232448037 -0.3609383782008502
H 5.223177806812292 2.353087290621139 -0.9953450987221963
H 7.677754691832916 2.4013856047646764 -0.8362476783836561
H 8.919406967688694 0.3979516480023126 -0.054765937927298135
H 7.672207125557075 -1.662810973742805 0.5411319769489709
H 5.232097867991595 -1.7280956570750452 0.38395734504663326
H 1.2879236144161406 -0.9056435953515349 -1.9693009346486041
H -1.0932324777917084 -0.33886419636786924 -2.2828346748489388
H -5.202241662683841 -2.4840838239071203 0.08326200999420166
H -7.661265458755492 -2.504365383348897 0.00977385859569546
H -8.907720958633812 -0.47367352083741754 -0.6892745957174023
H -7.658360656963237 1.56959379218173 -1.3383578791466317
H -5.213325919357808 1.6040558542599948 -1.2750790786957205


--Link1--
%nprocshared=7
%mem=14GB
%Oldchk=DXWQPWMYKQYRDS-UHFFFAOYSA-N_conf_4_0.chk
%Chk=DXWQPWMYKQYRDS-UHFFFAOYSA-N_conf_4_1.chk
# freq B3LYP/6-31G** SCRF=(Solvent=water) volume NMR pop=NPA density=current Geom=AllCheck Guess=Read


--Link1--
%nprocshared=7
%mem=14GB
%Oldchk=DXWQPWMYKQYRDS-UHFFFAOYSA-N_conf_4_1.chk
%Chk=DXWQPWMYKQYRDS-UHFFFAOYSA-N_conf_4_2.chk
# TD(NStates=10, Root=1) B3LYP/6-31G** SCRF=(Solvent=water) volume pop=NPA density=current Geom=AllCheck Guess=Read



