%nprocshared=4
%mem=8GB
%Chk=HLBLWEWZXPIGSM-UHFFFAOYSA-N_conf_1_0.chk
# opt=CalcFc B3LYP/6-31G** SCRF=(Solvent=water) scf=xqc 

HLBLWEWZXPIGSM-UHFFFAOYSA-N_conf_1

0 1
N 4.679448946930903 -1.3893696406862324 0.8712172154293397
C 3.576806733531732 -0.8276621707084145 0.21742225184690372
C 2.704286142212409 0.01777387284427295 0.9090376475565095
C 1.5359069993087766 0.4895418470222073 0.30360131922911276
C 1.203959731183982 0.06619102562564327 -0.9837178129546175
O 0.08752939112580482 0.512713251158789 -1.6524664959655886
C -1.1058994527982724 0.5082058329525017 -0.9678271915031932
C -1.552959568242993 -0.5894633783642683 -0.23171211178483012
C -2.7924303433691886 -0.5341190451176486 0.412397673949143
C -3.6180354800384276 0.5861644732571878 0.27925435669305126
N -4.800147726320055 0.6823594112888232 1.0223144690282402
C -3.1424427953351945 1.6913496440224913 -0.4322898918857551
C -1.9044579994836153 1.6443654178029221 -1.0789329677697146
C 2.0478799587548826 -0.8042184539830336 -1.670074247728755
C 3.2142393717971323 -1.2707566253017388 -1.0577759248005225
H 5.407094738491886 -1.7142495975336633 0.24241157519989187
H 5.047663891681454 -0.8133957750403884 1.6217100064374756
H 2.9298816643487644 0.3234940525297304 1.9270930664765185
H 0.8913791236571943 1.1752573086786489 0.8461132630508363
H -0.9442337093858898 -1.484920846426039 -0.14482846005249292
H -3.110263958797153 -1.380164670615738 1.0157077271531219
H -5.22325587202041 -0.2151763475495774 1.2367356295139496
H -5.470414336593901 1.3433594662047057 0.6425317919578823
H -3.735225597068687 2.599884825822063 -0.49334531684220145
H -1.557252243384247 2.4999270203293 -1.6510013213052974
H 1.7902178356117175 -1.135242065009655 -2.6719886023429056
H 3.8407245542012074 -1.981848833202903 -1.5892085991860305


--Link1--
%nprocshared=4
%mem=8GB
%Oldchk=HLBLWEWZXPIGSM-UHFFFAOYSA-N_conf_1_0.chk
%Chk=HLBLWEWZXPIGSM-UHFFFAOYSA-N_conf_1_1.chk
# freq B3LYP/6-31G** SCRF=(Solvent=water) volume NMR pop=NPA density=current Geom=AllCheck Guess=Read


--Link1--
%nprocshared=4
%mem=8GB
%Oldchk=HLBLWEWZXPIGSM-UHFFFAOYSA-N_conf_1_1.chk
%Chk=HLBLWEWZXPIGSM-UHFFFAOYSA-N_conf_1_2.chk
# TD(NStates=10, Root=1) B3LYP/6-31G** SCRF=(Solvent=water) volume pop=NPA density=current Geom=AllCheck Guess=Read



