%nprocshared=4
%mem=8GB
%Chk=HLBLWEWZXPIGSM-UHFFFAOYSA-N_conf_2_0.chk
# opt=CalcFc B3LYP/6-31G** SCRF=(Solvent=water) scf=xqc 

HLBLWEWZXPIGSM-UHFFFAOYSA-N_conf_2

0 1
N -4.72799152974027 0.5317216940463895 1.4249894645886414
C -3.6080044767695276 0.3577347019300045 0.6039008714457039
C -3.476394500956868 -0.7984538155625859 -0.17073872692767225
C -2.3095564832248145 -1.0385319645611384 -0.9012513778467037
C -1.240909716681646 -0.14930379463258647 -0.8132228109065308
O -0.13119721148852778 -0.42320548609380615 -1.5786347936981509
C 1.0971604897792886 -0.33890880604156426 -0.9641292411693085
C 2.122062378044587 0.2754757587096204 -1.6802351827576796
C 3.4030477702680844 0.36235125740217267 -1.128037222376468
C 3.664169642986275 -0.13720691457661122 0.15102986122090253
N 4.972490468136513 -0.15218475582276486 0.647734663688105
C 2.6484675302467293 -0.822450297905336 0.8239988551848799
C 1.3644267586717354 -0.9139487975063335 0.2786392196439413
C -1.3449386036242594 0.9910681085639595 -0.016318591209302243
C -2.5157518747977208 1.223836933520302 0.7110200606744796
H -4.893931295092428 1.496756397549545 1.692670786122419
H -5.566786476983973 0.07948052778075117 1.0750733560143932
H -4.285310100777073 -1.5224649154423033 -0.21619196851174322
H -2.2288271051592434 -1.9270617326878408 -1.520807262709024
H 1.9289452440272945 0.6778061636409702 -2.6705198230540725
H 4.197747606404913 0.8220147445411927 -1.7092128571970984
H 5.02650676925254 -0.23488066457395546 1.6580444268878969
H 5.555978310502646 0.5974745636655031 0.29019963618835704
H 2.8490740459836674 -1.2977418804845064 1.7803959392351425
H 0.5903485126442088 -1.4501702358812942 0.8201791620773657
H -0.5218881965919636 1.6963493736616235 0.052400531460795194
H -2.568937955059747 2.0944438367607314 1.3590230239307266


--Link1--
%nprocshared=4
%mem=8GB
%Oldchk=HLBLWEWZXPIGSM-UHFFFAOYSA-N_conf_2_0.chk
%Chk=HLBLWEWZXPIGSM-UHFFFAOYSA-N_conf_2_1.chk
# freq B3LYP/6-31G** SCRF=(Solvent=water) volume NMR pop=NPA density=current Geom=AllCheck Guess=Read


--Link1--
%nprocshared=4
%mem=8GB
%Oldchk=HLBLWEWZXPIGSM-UHFFFAOYSA-N_conf_2_1.chk
%Chk=HLBLWEWZXPIGSM-UHFFFAOYSA-N_conf_2_2.chk
# TD(NStates=10, Root=1) B3LYP/6-31G** SCRF=(Solvent=water) volume pop=NPA density=current Geom=AllCheck Guess=Read



