%nprocshared=5
%mem=10GB
%Chk=XPAQFJJCWGSXGJ-UHFFFAOYSA-N_conf_2_0.chk
# opt=CalcFc B3LYP/6-31G** SCRF=(Solvent=water) scf=xqc 

XPAQFJJCWGSXGJ-UHFFFAOYSA-N_conf_2

0 1
O 0.22398996620100756 0.06091947557824395 2.0286273643459483
C 0.47426873608270215 0.03056666858862043 0.8300886932874108
N -0.43316618954993286 0.05397396247759484 -0.21344863996778213
C -1.8406500076449803 0.045341665618443765 -0.12457998218225165
C -2.5590414370139705 0.14917478393679381 -1.3207993658842332
C -3.958865063911211 0.13897472769183353 -1.316948424421003
C -4.666479685796186 -0.018367773813700604 -0.12583640576822616
N -6.060602503162089 0.09141431593128833 -0.11135004146207077
C -3.949340331580383 -0.06285819707550647 1.0698421004036247
C -2.548062310921906 -0.05487204746387347 1.0719476208492253
C 1.9035499412188692 0.0029250285136012367 0.41118233860735365
C 2.3336218654116463 -0.7368929340625942 -0.695820561945439
C 3.685935753631294 -0.7313647655584304 -1.0542891042362306
C 4.626876308588497 -0.034131800792605284 -0.2907948896540771
N 5.951858153387609 0.06591621959097817 -0.7274041382055519
C 4.181672131646817 0.734515994136382 0.7878367977048714
C 2.833329672901083 0.7333985477486443 1.1569930895587022
H -0.0555595552216231 0.15377967028353126 -1.146293279197474
H -2.046117936254254 0.2549400262298662 -2.272614377898039
H -4.490871719715044 0.2559906643518847 -2.2571026937251757
H -6.5064590500158275 -0.19986091262342323 -0.9750840393086408
H -6.4947033315230085 -0.3246361031480931 0.706815835449203
H -4.471837210991076 -0.10729676304768304 2.021863147355462
H -2.043293213172885 -0.11698919752912912 2.030650489555864
H 1.6382796352817932 -1.3346026288889554 -1.278132775153038
H 4.0026048162186765 -1.287518167959469 -1.9331621813785276
H 6.268577317591481 -0.7278327645970468 -1.2753916520136996
H 6.609349014563284 0.31048563284789865 0.007113860743718294
H 4.882825635459998 1.3391862616186208 1.3573826328499679
H 2.5083105982885963 1.3157204114167562 2.0168336852328372


--Link1--
%nprocshared=5
%mem=10GB
%Oldchk=XPAQFJJCWGSXGJ-UHFFFAOYSA-N_conf_2_0.chk
%Chk=XPAQFJJCWGSXGJ-UHFFFAOYSA-N_conf_2_1.chk
# freq B3LYP/6-31G** SCRF=(Solvent=water) volume NMR pop=NPA density=current Geom=AllCheck Guess=Read


--Link1--
%nprocshared=5
%mem=10GB
%Oldchk=XPAQFJJCWGSXGJ-UHFFFAOYSA-N_conf_2_1.chk
%Chk=XPAQFJJCWGSXGJ-UHFFFAOYSA-N_conf_2_2.chk
# TD(NStates=10, Root=1) B3LYP/6-31G** SCRF=(Solvent=water) volume pop=NPA density=current Geom=AllCheck Guess=Read



