%nprocshared=5
%mem=10GB
%Chk=XPAQFJJCWGSXGJ-UHFFFAOYSA-N_conf_0_0.chk
# opt=CalcFc B3LYP/6-31G** SCRF=(Solvent=water) scf=xqc 

XPAQFJJCWGSXGJ-UHFFFAOYSA-N_conf_0

0 1
O -0.028056635313340857 -1.4848179013476979 -1.4274106952208843
C -0.3895021779661178 -0.6365314725293107 -0.6211731741205222
N 0.41380104497460285 0.10101769322465151 0.22958980999271705
C 1.8226248884938705 0.09801658356405547 0.29080015772981427
C 2.641306325578087 -0.5857000936066792 -0.606182308139892
C 4.0355885387332675 -0.530182276779493 -0.47888592431440336
C 4.634050544862913 0.17172837756905882 0.5676037005399738
N 6.024291777855215 0.31764660213874785 0.6180805012311342
C 3.816248770280835 0.9065386852206634 1.425336414738095
C 2.4227810823955096 0.856274704214061 1.3018748056996026
C -1.8493304935998 -0.3740739149196466 -0.4819412411721461
C -2.3476685298094284 0.9106381696601054 -0.23905735032531933
C -3.726554667978051 1.1103592470259018 -0.11239441813718136
C -4.622209645731459 0.04927368955440505 -0.2744776177917549
N -5.985639348952734 0.2353152928643321 -0.023962359249717492
C -4.112921221292817 -1.2362612534586441 -0.47569614447069025
C -2.737142933216393 -1.4466622367705362 -0.6072910538595507
H -0.05342421271161821 0.6505228375349764 0.9385052532771051
H 2.2301994382430763 -1.158885754904886 -1.4310973241049842
H 4.647278686952043 -1.0478946313761501 -1.2131184703595488
H 6.530047249723791 -0.4518070574902771 0.18992861484870777
H 6.380429126845512 0.5457922109271345 1.5405804266499499
H 4.256107323194919 1.5270478329420574 2.201290039204832
H 1.821122643332408 1.4273293865093608 2.003355312367682
H -1.6837207976885458 1.767044612735809 -0.1633000816099953
H -4.098792095159394 2.108634211855869 0.10420133266810354
H -6.581431752002552 -0.4686144092464059 -0.4495659963065645
H -6.315647463298379 1.1775483214377225 -0.20838106119260366
H -4.784224168796183 -2.0889149020859046 -0.5385085973417072
H -2.3596112979490225 -2.450382554463172 -0.7917971798822624


--Link1--
%nprocshared=5
%mem=10GB
%Oldchk=XPAQFJJCWGSXGJ-UHFFFAOYSA-N_conf_0_0.chk
%Chk=XPAQFJJCWGSXGJ-UHFFFAOYSA-N_conf_0_1.chk
# freq B3LYP/6-31G** SCRF=(Solvent=water) volume NMR pop=NPA density=current Geom=AllCheck Guess=Read


--Link1--
%nprocshared=5
%mem=10GB
%Oldchk=XPAQFJJCWGSXGJ-UHFFFAOYSA-N_conf_0_1.chk
%Chk=XPAQFJJCWGSXGJ-UHFFFAOYSA-N_conf_0_2.chk
# TD(NStates=10, Root=1) B3LYP/6-31G** SCRF=(Solvent=water) volume pop=NPA density=current Geom=AllCheck Guess=Read



