%nprocshared=5
%mem=10GB
%Chk=XPAQFJJCWGSXGJ-UHFFFAOYSA-N_conf_1_0.chk
# opt=CalcFc B3LYP/6-31G** SCRF=(Solvent=water) scf=xqc 

XPAQFJJCWGSXGJ-UHFFFAOYSA-N_conf_1

0 1
O -0.23184686709375574 1.558916216508339 -1.3592762552809896
C -0.47200338981013545 0.7034065264675204 -0.5162579152357698
N 0.4216421938645612 -0.1952190888381015 0.037766034795328404
C 1.8127597058136296 -0.2628223750873678 -0.1830559301683972
C 2.506495375716035 -1.321767544440506 0.41257839220931447
C 3.8896225544814715 -1.4547305726361788 0.24286793931683082
C 4.598737265090643 -0.5570252803906425 -0.5544607499288019
N 5.994190158521967 -0.6230554365038079 -0.6248993893944574
C 3.9157088179667427 0.5337692107667685 -1.092620396464636
C 2.531034695151 0.6708876437518876 -0.9277389925857428
C -1.877069663236906 0.5551229500973534 -0.04385087714019276
C -2.178492521033135 0.23549657001544608 1.2846074213894196
C -3.512881149566333 0.10325872414586708 1.6835799632351358
C -4.556510992978479 0.33501293271835114 0.7827486593320072
N -5.879442163121586 0.07993988302664941 1.1583833415896008
C -4.244977666276888 0.6130539390009928 -0.5507070108977472
C -2.915208455452356 0.7508906361337873 -0.959444465683559
H 0.03306398956099369 -0.9345828418915577 0.607998634022277
H 1.9884163497297167 -2.0544077475897664 1.024954474333406
H 4.4073819609716285 -2.269717032650823 0.7411980816450017
H 6.367716931491005 -1.5596003698292995 -0.5097839015964346
H 6.3835820377118235 -0.1504719097761897 -1.4349617752277126
H 4.4522426941583 1.2957439195019411 -1.6519186741122234
H 2.049548035402395 1.5316694459005553 -1.3807962384181118
H -1.3936511126724491 0.10368195675428499 2.023962468042863
H -3.7326745604977316 -0.17298682422831738 2.7118823811864154
H -6.56889517314887 0.5511638157753632 0.5802595077359501
H -6.060326551173509 0.20720052872777903 2.149243846700952
H -5.036703048051652 0.73175141256152 -1.2860249872549914
H -2.691459451518441 0.9954207120088322 -1.9958657644934221


--Link1--
%nprocshared=5
%mem=10GB
%Oldchk=XPAQFJJCWGSXGJ-UHFFFAOYSA-N_conf_1_0.chk
%Chk=XPAQFJJCWGSXGJ-UHFFFAOYSA-N_conf_1_1.chk
# freq B3LYP/6-31G** SCRF=(Solvent=water) volume NMR pop=NPA density=current Geom=AllCheck Guess=Read


--Link1--
%nprocshared=5
%mem=10GB
%Oldchk=XPAQFJJCWGSXGJ-UHFFFAOYSA-N_conf_1_1.chk
%Chk=XPAQFJJCWGSXGJ-UHFFFAOYSA-N_conf_1_2.chk
# TD(NStates=10, Root=1) B3LYP/6-31G** SCRF=(Solvent=water) volume pop=NPA density=current Geom=AllCheck Guess=Read



