%nprocshared=5
%mem=10GB
%Chk=XPAQFJJCWGSXGJ-UHFFFAOYSA-N_conf_4_0.chk
# opt=CalcFc B3LYP/6-31G** SCRF=(Solvent=water) scf=xqc 

XPAQFJJCWGSXGJ-UHFFFAOYSA-N_conf_4

0 1
O 0.02588890013255005 0.7150694747080882 -1.9401727579610748
C -0.3653288964704808 0.26614023397347325 -0.8699077917645252
N 0.41225532265024945 -0.20262182199645787 0.17344321741849048
C 1.8198462882377209 -0.19927507154668628 0.2609586727814524
C 2.3933608350493656 -0.7977919523358986 1.3881973540730141
C 3.783233041014342 -0.8271167729005288 1.5525749315443191
C 4.623603696228596 -0.22268736822568658 0.618409427280346
N 6.01161783712477 -0.35726885833632366 0.7239766504618977
C 4.0525242918533255 0.3213104611072953 -0.532177935532368
C 2.6618674560073328 0.35510462599897713 -0.7012349607892053
C -1.8344613692632747 0.16334576413313914 -0.6459114313704685
C -2.6535706588240457 -0.17682491028546404 -1.7264941681479906
C -4.035845116961297 -0.28815929010788227 -1.5497836588018676
C -4.621981267805259 -0.007958582140290856 -0.31268834775067056
N -5.986968871803145 -0.23766175125912736 -0.11204010054097427
C -3.793185516824336 0.2943568495896011 0.7718061723413344
C -2.408329158585028 0.40529531679301434 0.6070387837397078
H -0.07110305649948301 -0.659648285934897 0.9351772796515706
H 1.7735472662790075 -1.2640405450701835 2.1489019114999772
H 4.202361994597894 -1.3289593304038267 2.4203867512267814
H 6.530765089357029 0.34102513090523384 0.2007097799197904
H 6.345642911739023 -0.45243344095627197 1.677410502362524
H 4.683164374535567 0.7312878925357064 -1.3167374126142726
H 2.27313905733621 0.8134490959616949 -1.6048788314729985
H -2.2166326532588134 -0.3715213247154382 -2.703858142459311
H -4.65155713774091 -0.5910194931798385 -2.3928724412247564
H -6.383165835237899 0.2760336819967706 0.6688463147149861
H -6.547399605588791 -0.1458865392654904 -0.9541326000981247
H -4.223536566603157 0.4571994559142396 1.7568358958504633
H -1.7997526506775208 0.6968014996150539 1.4582169356624533


--Link1--
%nprocshared=5
%mem=10GB
%Oldchk=XPAQFJJCWGSXGJ-UHFFFAOYSA-N_conf_4_0.chk
%Chk=XPAQFJJCWGSXGJ-UHFFFAOYSA-N_conf_4_1.chk
# freq B3LYP/6-31G** SCRF=(Solvent=water) volume NMR pop=NPA density=current Geom=AllCheck Guess=Read


--Link1--
%nprocshared=5
%mem=10GB
%Oldchk=XPAQFJJCWGSXGJ-UHFFFAOYSA-N_conf_4_1.chk
%Chk=XPAQFJJCWGSXGJ-UHFFFAOYSA-N_conf_4_2.chk
# TD(NStates=10, Root=1) B3LYP/6-31G** SCRF=(Solvent=water) volume pop=NPA density=current Geom=AllCheck Guess=Read



