%nprocshared=4
%mem=8GB
%Chk=YBRVSVVVWCFQMG-UHFFFAOYSA-N_conf_1_0.chk
# opt=CalcFc B3LYP/6-31G** SCRF=(Solvent=water) scf=xqc 

YBRVSVVVWCFQMG-UHFFFAOYSA-N_conf_1

0 1
N -4.8871408372411915 0.7388411349577874 -0.6812994824420638
C -3.711163534052508 0.27339505739258757 -0.08105155832384817
C -2.787672935091861 1.174209788668021 0.451797866407853
C -1.5587606485087488 0.7294263331963114 0.9494342509250092
C -1.2100026133996162 -0.625261562512425 0.8783961404096423
C 0.11452358256834555 -1.1137283609873687 1.42030870915795
C 1.3283950420914403 -0.5261274135369781 0.7362902216395316
C 1.5604463535266027 -0.7461565964893482 -0.6273804056412955
C 2.6879705458324894 -0.20494538290776187 -1.2530631965370695
C 3.6292112158426946 0.5235770257974114 -0.5239882921192852
N 4.692035390659302 1.1585890969432677 -1.1774601879289326
C 3.369638336191724 0.7901700875769966 0.8214831639832567
C 2.2431721342009685 0.2540252520124035 1.4540504931724985
C -2.1130191634594304 -1.5194481991545425 0.2904932112211556
C -3.3411291503915734 -1.0670981647771927 -0.20310794816316927
H -5.617736397134634 0.03760988903232002 -0.746254497546064
H -5.2239265301915765 1.6138808614393632 -0.2927375122352649
H -3.01502483994464 2.236173794751819 0.4849430680754666
H -0.8659466668839354 1.4532389257097036 1.3730288326779
H 0.13930740237878558 -0.8966256675266377 2.496314114089103
H 0.17983673111663914 -2.20698611890498 1.3424807298813484
H 0.8524594353184279 -1.3226541670500025 -1.2187622619850258
H 2.8219681332610205 -0.35928153552916453 -2.3201997730399535
H 5.4718333158318355 1.3814561479047436 -0.5675748833012246
H 4.987188877058501 0.6881563872750344 -2.0269762891811935
H 4.045186208937324 1.420370779488728 1.3934000576830412
H 2.080747360559723 0.4649393452773425 2.5083483527420056
H -1.8638393994741576 -2.57376489964451 0.19701663401094138
H -4.008557349601525 -1.7759818384032149 -0.6854280205102004


--Link1--
%nprocshared=4
%mem=8GB
%Oldchk=YBRVSVVVWCFQMG-UHFFFAOYSA-N_conf_1_0.chk
%Chk=YBRVSVVVWCFQMG-UHFFFAOYSA-N_conf_1_1.chk
# freq B3LYP/6-31G** SCRF=(Solvent=water) volume NMR pop=NPA density=current Geom=AllCheck Guess=Read


--Link1--
%nprocshared=4
%mem=8GB
%Oldchk=YBRVSVVVWCFQMG-UHFFFAOYSA-N_conf_1_1.chk
%Chk=YBRVSVVVWCFQMG-UHFFFAOYSA-N_conf_1_2.chk
# TD(NStates=10, Root=1) B3LYP/6-31G** SCRF=(Solvent=water) volume pop=NPA density=current Geom=AllCheck Guess=Read



