%nprocshared=4
%mem=8GB
%Chk=YBRVSVVVWCFQMG-UHFFFAOYSA-N_conf_2_0.chk
# opt=CalcFc B3LYP/6-31G** SCRF=(Solvent=water) scf=xqc 

YBRVSVVVWCFQMG-UHFFFAOYSA-N_conf_2

0 1
N 4.917996064815381 1.0660587832773853 -0.07659849714239499
C 3.6547122677355675 0.46211300056499177 -0.0790414173184755
C 2.8103529470613116 0.5910771594294206 1.0249180320108913
C 1.597060785595191 -0.10170283500429154 1.082636614254752
C 1.2241773732414678 -0.971752951042804 0.05025892069977522
C -0.08246520048948255 -1.729643271870118 0.1133053773608036
C -1.311049477026397 -0.8502921305025746 0.05844968387587153
C -1.606952096863269 -0.1054417579466899 -1.0902326006337595
C -2.7488036093321955 0.7001698117834202 -1.1404173138978555
C -3.594019210999944 0.8108759046228193 -0.035132196639080245
N -4.794456876845396 1.5250972674857823 -0.13249696528382537
C -3.333546295100527 0.020645617032217435 1.0858399003420471
C -2.1931788223621176 -0.7871912460641676 1.1438250499621125
C 2.1009151150193865 -1.1482668507489209 -1.0269364354645871
C 3.312992678444074 -0.4520370674878538 -1.077263454248277
H 5.312534752527136 1.1872950746964854 -1.0037889568678404
H 4.959275898411295 1.9178280549597608 0.47394331646658183
H 3.0873220297952852 1.2371913121309206 1.85333165462944
H 0.9479622845416106 0.03735970825928376 1.9442069792027434
H -0.08282905276229145 -2.3323186718198805 1.031109486801589
H -0.14540077818258554 -2.4546354791657987 -0.7088917838224346
H -0.9535052266323192 -0.15306380791520938 -1.9583964514871264
H -2.96902651010884 1.2444879241792233 -2.0545642918696694
H -5.169409383431014 1.814447259424071 0.7651263775538094
H -4.758692428329877 2.2894456500978535 -0.7994338652994067
H -4.018171384702598 0.02701841534918393 1.9295697975595394
H -2.008782699969748 -1.3752819785924915 2.039696217047741
H 1.85559524268037 -1.8382880399622854 -1.830756852459676
H 3.9893916132709224 -0.6311948551693695 -1.9085394922113483


--Link1--
%nprocshared=4
%mem=8GB
%Oldchk=YBRVSVVVWCFQMG-UHFFFAOYSA-N_conf_2_0.chk
%Chk=YBRVSVVVWCFQMG-UHFFFAOYSA-N_conf_2_1.chk
# freq B3LYP/6-31G** SCRF=(Solvent=water) volume NMR pop=NPA density=current Geom=AllCheck Guess=Read


--Link1--
%nprocshared=4
%mem=8GB
%Oldchk=YBRVSVVVWCFQMG-UHFFFAOYSA-N_conf_2_1.chk
%Chk=YBRVSVVVWCFQMG-UHFFFAOYSA-N_conf_2_2.chk
# TD(NStates=10, Root=1) B3LYP/6-31G** SCRF=(Solvent=water) volume pop=NPA density=current Geom=AllCheck Guess=Read



