%nprocshared=4
%mem=8GB
%Chk=NULAJYZBOLVQPQ-UHFFFAOYSA-N_conf_1_0.chk
# opt=CalcFc B3LYP/6-31G** SCRF=(Solvent=water) scf=xqc 

NULAJYZBOLVQPQ-UHFFFAOYSA-N_conf_1

0 1
N -3.74305601256591 1.5228705023575144 -0.3929266096002165
C -3.6522314363714177 0.16921798217061307 0.17078726159106772
C -2.206601482968454 -0.2995195846164144 0.43512742704558705
N -1.3855856365611585 -0.12839839809844772 -0.7764004877480031
C -0.08552213146328584 -0.6786435987184525 -0.6019743069105881
C 1.0249400461844838 0.08994180572130667 -0.14334778110983934
C 0.9688154154176385 1.4762148418861443 0.14172542831245924
C 2.090404605978403 2.183583770586397 0.5826206868989515
C 3.3004559247112755 1.525829160194357 0.7535046521709817
C 3.388069555324095 0.16060310023280105 0.48843822044696417
C 2.26922919204241 -0.5656536211885635 0.04693945420128903
C 2.38208832952111 -1.9423621638567399 -0.19948374199636032
C 1.2845853690939615 -2.686107145875642 -0.6230209151668464
C 0.059084769914632795 -2.0585817686579326 -0.8140160656634333
H -3.167989855912917 2.1608753241694343 0.15314708742284713
H -3.34371651347663 1.498754716760228 -1.331767792054286
H -4.1398549867831775 -0.5226257345600899 -0.5253936409118692
H -4.217758680675407 0.13638297307064912 1.1080331954505576
H -2.236236422165658 -1.351002035099112 0.7457504482638234
H -1.7817552836567134 0.2871343859196367 1.2594169834913214
H -1.307549410936971 0.8564605009983148 -1.0101884419422276
H 0.041908072237504104 2.0294503337810967 0.027402031590339115
H 2.0148848698642627 3.247624125141211 0.7909126189756106
H 4.176149393236217 2.071334677535257 1.0947743457506225
H 4.344574936635372 -0.33784252967826334 0.6324999341621688
H 3.3332324839822776 -2.4511619354756573 -0.05685485578707601
H 1.3842070135673472 -3.7523772217742506 -0.8057092309244922
H -0.7947721241733536 -2.6420024629254963 -1.1499959059593305


--Link1--
%nprocshared=4
%mem=8GB
%Oldchk=NULAJYZBOLVQPQ-UHFFFAOYSA-N_conf_1_0.chk
%Chk=NULAJYZBOLVQPQ-UHFFFAOYSA-N_conf_1_1.chk
# freq B3LYP/6-31G** SCRF=(Solvent=water) volume NMR pop=NPA density=current Geom=AllCheck Guess=Read


--Link1--
%nprocshared=4
%mem=8GB
%Oldchk=NULAJYZBOLVQPQ-UHFFFAOYSA-N_conf_1_1.chk
%Chk=NULAJYZBOLVQPQ-UHFFFAOYSA-N_conf_1_2.chk
# TD(NStates=10, Root=1) B3LYP/6-31G** SCRF=(Solvent=water) volume pop=NPA density=current Geom=AllCheck Guess=Read



