%nprocshared=4
%mem=8GB
%Chk=NULAJYZBOLVQPQ-UHFFFAOYSA-N_conf_2_0.chk
# opt=CalcFc B3LYP/6-31G** SCRF=(Solvent=water) scf=xqc 

NULAJYZBOLVQPQ-UHFFFAOYSA-N_conf_2

0 1
N 3.9737352450666976 -0.4065892503623553 -0.9558661427371462
C 2.928033170631912 0.092337170038353 -0.05890858129322972
C 1.9825645587627416 -1.026849872990824 0.4223791708663539
N 1.0277674304977054 -0.5640182831753634 1.4460986479709672
C -0.007399989479995165 0.26791203226967725 0.9512916958785301
C -1.089304174576919 -0.24634622837837575 0.18237164301748693
C -1.297675486714832 -1.6270514622857175 -0.03473104887642195
C -2.3684458120454965 -2.098954600636655 -0.7967404663339599
C -3.2678344131980572 -1.2001446554718989 -1.3547962323667389
C -3.1028740646668433 0.16777777678421607 -1.1403526936539314
C -2.0316041842378953 0.6562331793748998 -0.3728155198122559
C -1.894660717401445 2.033258595701458 -0.14532667489721526
C -0.8467816909875181 2.5283177166189144 0.6259662949032546
C 0.08959812442635465 1.6524497890098113 1.1675482773445838
H 3.5401018511658693 -0.7937609643751703 -1.794570940453729
H 4.5412753503971794 0.3789431589941831 -1.273382543154349
H 2.360695257164703 0.8690472118116419 -0.5827566622407951
H 3.406255797788528 0.5671317655118036 0.8052061743217962
H 2.5804855517884504 -1.8240516096520887 0.8806047543266577
H 1.470109193404214 -1.4798616097200445 -0.4339708483211755
H 1.5192598623812428 -0.11186740206239179 2.2141582835131945
H -0.6210228540235802 -2.3511790796443104 0.41460360767719795
H -2.4991429618473986 -3.1675172060041574 -0.9437739863498874
H -4.1043793781553015 -1.5616278523571487 -1.9464835726687622
H -3.8265707865281238 0.8547803244776938 -1.5736786078845924
H -2.6146905125400632 2.733974533471874 -0.5626290046067743
H -0.7570532043967634 3.5971946097149075 0.7996648404055287
H 0.9095588373246539 2.0604622133372024 1.7523873865294386


--Link1--
%nprocshared=4
%mem=8GB
%Oldchk=NULAJYZBOLVQPQ-UHFFFAOYSA-N_conf_2_0.chk
%Chk=NULAJYZBOLVQPQ-UHFFFAOYSA-N_conf_2_1.chk
# freq B3LYP/6-31G** SCRF=(Solvent=water) volume NMR pop=NPA density=current Geom=AllCheck Guess=Read


--Link1--
%nprocshared=4
%mem=8GB
%Oldchk=NULAJYZBOLVQPQ-UHFFFAOYSA-N_conf_2_1.chk
%Chk=NULAJYZBOLVQPQ-UHFFFAOYSA-N_conf_2_2.chk
# TD(NStates=10, Root=1) B3LYP/6-31G** SCRF=(Solvent=water) volume pop=NPA density=current Geom=AllCheck Guess=Read



