%nprocshared=4
%mem=8GB
%Chk=NULAJYZBOLVQPQ-UHFFFAOYSA-N_conf_3_0.chk
# opt=CalcFc B3LYP/6-31G** SCRF=(Solvent=water) scf=xqc 

NULAJYZBOLVQPQ-UHFFFAOYSA-N_conf_3

0 1
N -4.468259831022994 -0.09688591905748077 -1.0174988768812794
C -3.5255141900642233 -0.5098034653051073 0.024896395985513416
C -2.146687723882032 0.17030688047803608 -0.09064748397236541
N -1.2601632780568723 -0.30979316506375015 0.9779820553620626
C 0.01841456073869605 0.30886690626420027 0.9115899443153428
C 1.1232514736035328 -0.2738255206505734 0.22312781038449628
C 1.0816638148268496 -1.5334938282163333 -0.4230214155450406
C 2.1968023417477904 -2.062134000589862 -1.0785633556609353
C 3.385403202511682 -1.3463149425950287 -1.109580715185233
C 3.4577152354038803 -0.10020742903143529 -0.49003802870749696
C 2.3449334846864187 0.44662289616483003 0.1709788099771574
C 2.440856361238966 1.7098777425632545 0.7740634316465198
C 1.3478897726913786 2.278966052786457 1.4210702567312072
C 0.1444689058826522 1.5857404636690686 1.4806499880081652
H -4.06173351938333 -0.2641660858219413 -1.9372250552137766
H -4.623179756936166 0.9092882761237508 -0.9550712171361837
H -3.4045618210553186 -1.5979657410017678 -0.027657178034062525
H -3.965119972220411 -0.2906823905389566 1.004734641899665
H -2.279290703359274 1.2572207412974308 -0.019302320648368485
H -1.7123925929991626 -0.05533911790343939 -1.0730331880862398
H -1.1551906602654574 -1.320340580491266 0.9372563051998517
H 0.1710383073606977 -2.1247971138699633 -0.42883830638446047
H 2.1326981747359044 -3.033056518485992 -1.562787932465102
H 4.256015421593738 -1.7535793030364664 -1.61653668841414
H 4.3971892142778195 0.4474341933481791 -0.5291343479438009
H 3.3747150035661795 2.267157676325191 0.7393050221457061
H 1.434094703483033 3.25978429459858 1.880175133722371
H -0.7050559291038212 2.031118998040088 1.992731835550652


--Link1--
%nprocshared=4
%mem=8GB
%Oldchk=NULAJYZBOLVQPQ-UHFFFAOYSA-N_conf_3_0.chk
%Chk=NULAJYZBOLVQPQ-UHFFFAOYSA-N_conf_3_1.chk
# freq B3LYP/6-31G** SCRF=(Solvent=water) volume NMR pop=NPA density=current Geom=AllCheck Guess=Read


--Link1--
%nprocshared=4
%mem=8GB
%Oldchk=NULAJYZBOLVQPQ-UHFFFAOYSA-N_conf_3_1.chk
%Chk=NULAJYZBOLVQPQ-UHFFFAOYSA-N_conf_3_2.chk
# TD(NStates=10, Root=1) B3LYP/6-31G** SCRF=(Solvent=water) volume pop=NPA density=current Geom=AllCheck Guess=Read



