%nprocshared=3
%mem=6GB
%Chk=FDLQZKYLHJJBHD-UHFFFAOYSA-N_conf_0_0.chk
# opt=CalcFc B3LYP/6-31G** SCRF=(Solvent=water) scf=xqc 

FDLQZKYLHJJBHD-UHFFFAOYSA-N_conf_0

0 1
N 3.046079372410121 1.3245332726269454 -0.07145814359826937
C 2.4365075591259058 0.3720617626966348 0.8481309261191136
C 1.1798413654729913 -0.22144680551500162 0.2673675946948017
C 1.1702289256512346 -1.5266976670965913 -0.2411533626956171
C 0.001032781606194081 -2.0683248378021646 -0.7765400632608614
C -1.1688123823706287 -1.3088864171411483 -0.8181756546234147
C -1.179731765171611 0.005101537005149257 -0.3327039384788374
C -2.437107505074665 0.8333867276750813 -0.37390095650413213
N -3.0472117110483365 0.9354128753233062 0.9458667850125196
C -0.0002666047980523037 0.5361250812406534 0.21184043972438843
H 3.9526669478934897 1.6071128587219174 0.2931436053396967
H 3.2202649642901746 0.8574043559683996 -0.9596621503826789
H 2.2014357597239975 0.870693739399055 1.7954130983643457
H 3.156079764898563 -0.42116216399803197 1.0821524544376424
H 2.073188470389566 -2.1318558664734413 -0.21905447043412316
H 0.001539134192576716 -3.084422367632307 -1.1621438634242005
H -2.071250904254182 -1.7478064054503972 -1.2364994016258137
H -2.2027861259968593 1.8351517193814668 -0.7517843946276378
H -3.156061157691766 0.3945127701698793 -1.0755066229607182
H -3.9541671048475533 1.3879460185753647 0.8602366489449971
H -3.2206947019957335 -0.0035324294234830027 1.3004672284605387
H -0.0007750824053493875 1.5546922417484783 0.5983854457204714


--Link1--
%nprocshared=3
%mem=6GB
%Oldchk=FDLQZKYLHJJBHD-UHFFFAOYSA-N_conf_0_0.chk
%Chk=FDLQZKYLHJJBHD-UHFFFAOYSA-N_conf_0_1.chk
# freq B3LYP/6-31G** SCRF=(Solvent=water) volume NMR pop=NPA density=current Geom=AllCheck Guess=Read


--Link1--
%nprocshared=3
%mem=6GB
%Oldchk=FDLQZKYLHJJBHD-UHFFFAOYSA-N_conf_0_1.chk
%Chk=FDLQZKYLHJJBHD-UHFFFAOYSA-N_conf_0_2.chk
# TD(NStates=10, Root=1) B3LYP/6-31G** SCRF=(Solvent=water) volume pop=NPA density=current Geom=AllCheck Guess=Read



