%nprocshared=4
%mem=8GB
%Chk=KWYHDKDOAIKMQN-UHFFFAOYSA-N_conf_0_0.chk
# opt=CalcFc B3LYP/6-31G** SCRF=(Solvent=water) scf=xqc 

KWYHDKDOAIKMQN-UHFFFAOYSA-N_conf_0

0 1
C 2.790734865845476 -1.299885328424564 -0.23594362977242977
N 1.8057635429394043 -0.5116633533333659 0.5115538029366826
C 2.411143489606697 0.7550442208532459 0.9296619299585567
C 0.6015180475270049 -0.29766725414497663 -0.3230952841114426
C -0.601509706580694 0.29768838253274205 0.45166302819171916
N -1.8057750470300526 0.5116596510926182 -0.3829658039402442
C -2.7907369742572614 1.2998802495485886 0.3645451787715596
C -2.4111537937635523 -0.7550603192932025 -0.8010394221963786
H 3.6735321575387965 -1.4998334810405314 0.3818189330676114
H 3.1169399242263034 -0.7935451434806949 -1.1517695919578905
H 2.3765925070229543 -2.276893988834254 -0.5092192368021478
H 2.6658351887599148 1.3941239707046598 0.07651632664744969
H 1.7475232035681745 1.3118639729871902 1.5978718532989784
H 3.326896350540147 0.5716434151319887 1.5038066084206445
H 0.29685255477171785 -1.2727780798140294 -0.7205108036084271
H 0.8385200812782058 0.3395765975296913 -1.1855693871204198
H -0.8384896334508302 -0.33953790254680893 1.3141575762975954
H -0.29684387506153104 1.2728114249045643 0.8490490464613868
H -3.6735460932215176 1.499822644476886 -0.2532004231348675
H -2.376597451105877 2.276893306448117 0.6378080700935508
H -3.1169157266684637 0.7935464360296498 1.2803825760803287
H -1.7475422049036298 -1.311892116650085 -1.4692482108189222
H -3.3269162193129183 -0.5716752991907792 -1.3751701755561807
H -2.665825188268778 -1.3941220054864807 0.0521239342217418


--Link1--
%nprocshared=4
%mem=8GB
%Oldchk=KWYHDKDOAIKMQN-UHFFFAOYSA-N_conf_0_0.chk
%Chk=KWYHDKDOAIKMQN-UHFFFAOYSA-N_conf_0_1.chk
# freq B3LYP/6-31G** SCRF=(Solvent=water) volume NMR pop=NPA density=current Geom=AllCheck Guess=Read


--Link1--
%nprocshared=4
%mem=8GB
%Oldchk=KWYHDKDOAIKMQN-UHFFFAOYSA-N_conf_0_1.chk
%Chk=KWYHDKDOAIKMQN-UHFFFAOYSA-N_conf_0_2.chk
# TD(NStates=10, Root=1) B3LYP/6-31G** SCRF=(Solvent=water) volume pop=NPA density=current Geom=AllCheck Guess=Read



