%nprocshared=4
%mem=8GB
%Chk=KWYHDKDOAIKMQN-UHFFFAOYSA-N_conf_1_0.chk
# opt=CalcFc B3LYP/6-31G** SCRF=(Solvent=water) scf=xqc 

KWYHDKDOAIKMQN-UHFFFAOYSA-N_conf_1

0 1
C -2.1487740581849106 1.541855518269596 -0.43408339107502864
N -1.8772915661969523 0.2895928755261618 0.27583529620433567
C -3.0259745887192424 -0.610715792516905 0.13374401051272836
C -0.6558659403371428 -0.3770300310883138 -0.23050332103168567
C 0.6558663879949568 0.37703074289719274 0.10524113899065676
N 1.8772945398066707 -0.28961484651835107 -0.40106023895677095
C 2.1487710703228884 -1.5418447389187109 0.30892286376439404
C 3.0259778210227344 0.6106982472320824 -0.25899924585873635
H -2.234207441573121 1.3943079768712894 -1.5167080864550981
H -1.3688139342678356 2.284859463784198 -0.24289870384239892
H -3.0826274601419827 1.9910962263452232 -0.07634207241964591
H -3.932114584083721 -0.1465464641858386 0.5392030750106946
H -2.867801028871919 -1.5319578000050713 0.7056140605002427
H -3.213650211557858 -0.8801692104864308 -0.9120564558812079
H -0.7246612736676313 -0.5355921143487384 -1.31504736357777
H -0.602963650791473 -1.3682589938538485 0.23454218055458523
H 0.7246486816952585 0.5356264511042241 1.1897803063548107
H 0.602973070634773 1.3682450517423053 -0.3598360898034669
H 3.0826273132871336 -1.9911014664089353 -0.04879081132033527
H 2.234196550087081 -1.3942421177484787 1.391540303856664
H 1.3688143828615995 -2.284860973697093 0.11776886750718246
H 3.9321219434627643 0.14650740595608078 -0.664424282301019
H 3.213639764534545 0.8802025963471983 0.7867899776147392
H 2.8678142126830077 1.5319119937010224 -0.8309160616050238


--Link1--
%nprocshared=4
%mem=8GB
%Oldchk=KWYHDKDOAIKMQN-UHFFFAOYSA-N_conf_1_0.chk
%Chk=KWYHDKDOAIKMQN-UHFFFAOYSA-N_conf_1_1.chk
# freq B3LYP/6-31G** SCRF=(Solvent=water) volume NMR pop=NPA density=current Geom=AllCheck Guess=Read


--Link1--
%nprocshared=4
%mem=8GB
%Oldchk=KWYHDKDOAIKMQN-UHFFFAOYSA-N_conf_1_1.chk
%Chk=KWYHDKDOAIKMQN-UHFFFAOYSA-N_conf_1_2.chk
# TD(NStates=10, Root=1) B3LYP/6-31G** SCRF=(Solvent=water) volume pop=NPA density=current Geom=AllCheck Guess=Read



