%nprocshared=4
%mem=8GB
%Chk=KWYHDKDOAIKMQN-UHFFFAOYSA-N_conf_2_0.chk
# opt=CalcFc B3LYP/6-31G** SCRF=(Solvent=water) scf=xqc 

KWYHDKDOAIKMQN-UHFFFAOYSA-N_conf_2

0 1
C -2.302667733749532 0.5318285118848713 1.730569104433287
N -1.396769157819101 0.40549736375294376 0.5896537883468698
C -2.157794746515144 0.29557682598040114 -0.6534413898835896
C -0.4827780077540402 -0.7373351837354813 0.7835716674521376
C 0.5936990911388256 -0.9685236046784488 -0.31656202163340724
N 1.3564147790932803 0.215140192007384 -0.7595680894852723
C 2.277635061610757 -0.1467632571805255 -1.8359871894968416
C 2.0837052990092446 0.8437691071158826 0.3415221529276076
H -1.737564690944639 0.6713362734142087 2.65893025818225
H -2.9465022456037064 -0.347528786509999 1.8469187807339196
H -2.941912156376238 1.4149453509728178 1.6199668479861025
H -1.5009516407936343 0.324738294038582 -1.528390581814246
H -2.7498777623568236 -0.6258309963086632 -0.6933480307471142
H -2.8414389533686664 1.1455063994940529 -0.7620427623748136
H -1.0596794376174792 -1.6663606584767565 0.8890366301530821
H 0.04782939638260682 -0.5981322941974292 1.7346514431280018
H 1.2815115636787127 -1.7452158439489258 0.04494886396282045
H 0.0818515241856533 -1.396234844275102 -1.1886572250831096
H 3.026239075798718 -0.8785239060152283 -1.511255659728222
H 1.7307819270547309 -0.5668603775746944 -2.6875314223556357
H 2.8017916707558563 0.7399171165672901 -2.2099103240322364
H 1.3996241652648231 1.2334153981950093 1.1018127589755675
H 2.655985882856604 1.7064698850570075 -0.018739249404598608
H 2.7808670960696 0.14916903442078472 0.8238516497575079


--Link1--
%nprocshared=4
%mem=8GB
%Oldchk=KWYHDKDOAIKMQN-UHFFFAOYSA-N_conf_2_0.chk
%Chk=KWYHDKDOAIKMQN-UHFFFAOYSA-N_conf_2_1.chk
# freq B3LYP/6-31G** SCRF=(Solvent=water) volume NMR pop=NPA density=current Geom=AllCheck Guess=Read


--Link1--
%nprocshared=4
%mem=8GB
%Oldchk=KWYHDKDOAIKMQN-UHFFFAOYSA-N_conf_2_1.chk
%Chk=KWYHDKDOAIKMQN-UHFFFAOYSA-N_conf_2_2.chk
# TD(NStates=10, Root=1) B3LYP/6-31G** SCRF=(Solvent=water) volume pop=NPA density=current Geom=AllCheck Guess=Read



