%nprocshared=5
%mem=10GB
%Chk=PWGJDPKCLMLPJW-UHFFFAOYSA-N_conf_1_0.chk
# opt=CalcFc B3LYP/6-31G** SCRF=(Solvent=water) scf=xqc 

PWGJDPKCLMLPJW-UHFFFAOYSA-N_conf_1

0 1
N 4.735991382279899 -0.0016501079063838248 -0.679199540077215
C 4.090498137838806 -0.24100825921032853 0.6063422061474668
C 2.5695698011504815 -0.3821760850725409 0.49642559256785684
C 1.8742945768221269 0.8991508856640932 0.025028620647856995
C 0.3458393929106984 0.825723994581863 0.11577758082592765
C -0.2650438659775028 -0.22155102961192405 -0.8191261465139082
C -1.7944054905684512 -0.14699944987411398 -0.8932091270327777
C -2.4803898915572695 -0.4797318624473249 0.43601572119656806
C -4.00120471663177 -0.6089531708554722 0.3186061803411372
N -4.6375208153079095 0.6539505515063662 -0.03575436289920495
H 4.446854145713708 -0.7164384761302236 -1.3457537466826976
H 4.420749240621352 0.8871534568275463 -1.0646986797656448
H 4.503501231670365 -1.161379911502997 1.033480878174673
H 4.346297523935061 0.5720422564749736 1.294484353994784
H 2.332106949859619 -1.2106982211258757 -0.18128212267287303
H 2.180206424759122 -0.6602107926736243 1.4836410623587832
H 2.161905757983452 1.1287176054147883 -1.007508003660264
H 2.2130037598781396 1.7394882870263333 0.6435338272754606
H 0.058193554992230445 0.6200839415864581 1.1530976866659168
H -0.05927975346787109 1.8133409531551024 -0.13680741418485767
H 0.1335392094221139 -0.07672277920486603 -1.830791234464236
H 0.029578247754680112 -1.2285778229381554 -0.5026426709819604
H -2.0888165433037047 0.852842155696998 -1.2325545829725455
H -2.133987267914574 -0.8551736052974974 -1.659124417563585
H -2.0851443612970977 -1.4300322633322122 0.8158487595255338
H -2.2404465168548255 0.284003864541982 1.1852859112940863
H -4.260210850214841 -1.3719168369083958 -0.4237904306279686
H -4.403091002500034 -0.9422917261378487 1.2816241372961534
H -4.345806084105828 0.9392853911026735 -0.9692747703041372
H -5.646782177889837 0.5197290566509303 -0.08593143852612312


--Link1--
%nprocshared=5
%mem=10GB
%Oldchk=PWGJDPKCLMLPJW-UHFFFAOYSA-N_conf_1_0.chk
%Chk=PWGJDPKCLMLPJW-UHFFFAOYSA-N_conf_1_1.chk
# freq B3LYP/6-31G** SCRF=(Solvent=water) volume NMR pop=NPA density=current Geom=AllCheck Guess=Read


--Link1--
%nprocshared=5
%mem=10GB
%Oldchk=PWGJDPKCLMLPJW-UHFFFAOYSA-N_conf_1_1.chk
%Chk=PWGJDPKCLMLPJW-UHFFFAOYSA-N_conf_1_2.chk
# TD(NStates=10, Root=1) B3LYP/6-31G** SCRF=(Solvent=water) volume pop=NPA density=current Geom=AllCheck Guess=Read



