%nprocshared=5
%mem=10GB
%Chk=PWGJDPKCLMLPJW-UHFFFAOYSA-N_conf_3_0.chk
# opt=CalcFc B3LYP/6-31G** SCRF=(Solvent=water) scf=xqc 

PWGJDPKCLMLPJW-UHFFFAOYSA-N_conf_3

0 1
N 4.776786848490482 -0.19394803895767612 0.6397035285838967
C 3.366218621142007 -0.4901707623097266 0.41001282690776397
C 2.514021493183851 0.7725325487598703 0.5419240785819417
C 1.011106497332379 0.5049810046809207 0.4030748713783598
C 0.6086232989158895 0.02304639612208927 -0.9914365397039069
C -0.9087497069008564 -0.04690489133139434 -1.2100495049259037
C -1.6232947753151319 -1.088431613913082 -0.3389832255160517
C -2.2343761668714923 -0.5263507071501001 0.9520254051916879
C -3.70404194827068 -0.10753801961308113 0.8282853949176171
N -3.924332697393155 1.0037803819291298 -0.08674251018668559
H 4.894236167735398 0.21375957782576596 1.5666893071122288
H 5.088148535405015 0.518363635277599 -0.019876175485220596
H 3.039971945206738 -1.2458463427316064 1.1324991354139908
H 3.264229088631217 -0.9250189309157001 -0.5888823549754498
H 2.687760893891815 1.2256929640906076 1.5265162142411415
H 2.8240719913412513 1.5142909844986359 -0.20487575132067876
H 0.4779645048921527 1.4367392406613095 0.6280776685304122
H 0.7081257929638572 -0.22986560566417719 1.1574865096918237
H 1.0282608476638564 0.7052480632206394 -1.7412406698724918
H 1.0414451879028774 -0.964471313317469 -1.188333651598787
H -1.0687003267663895 -0.32233606250711466 -2.2604500481020984
H -1.3438842463310037 0.9495692513836377 -1.0839651354848368
H -0.9171780642797163 -1.8872241107793402 -0.08030131156052304
H -2.4137353809424273 -1.5672406265430898 -0.930330131427592
H -1.6417558758924904 0.30862339850652876 1.3405347474822698
H -2.189593678883837 -1.3148663370757712 1.7143670088832321
H -4.072093958026893 0.1842699762871406 1.8181797919417446
H -4.311221754621623 -0.9609853896107058 0.5066868240790351
H -3.3138535169960535 1.780607851841037 0.1629103506235143
H -3.664159617207477 0.7296934773351709 -1.0327849595319925


--Link1--
%nprocshared=5
%mem=10GB
%Oldchk=PWGJDPKCLMLPJW-UHFFFAOYSA-N_conf_3_0.chk
%Chk=PWGJDPKCLMLPJW-UHFFFAOYSA-N_conf_3_1.chk
# freq B3LYP/6-31G** SCRF=(Solvent=water) volume NMR pop=NPA density=current Geom=AllCheck Guess=Read


--Link1--
%nprocshared=5
%mem=10GB
%Oldchk=PWGJDPKCLMLPJW-UHFFFAOYSA-N_conf_3_1.chk
%Chk=PWGJDPKCLMLPJW-UHFFFAOYSA-N_conf_3_2.chk
# TD(NStates=10, Root=1) B3LYP/6-31G** SCRF=(Solvent=water) volume pop=NPA density=current Geom=AllCheck Guess=Read



