%nprocshared=8
%mem=16GB
%Chk=ZWRBLCDTKAWRHT-UHFFFAOYSA-N_conf_2_0.chk
# opt=CalcFc B3LYP/6-31G** SCRF=(Solvent=water) scf=xqc 

ZWRBLCDTKAWRHT-UHFFFAOYSA-N_conf_2

0 1
C -2.768214270564836 -0.940833755991124 -2.0528894072370556
Si -2.518798270906483 -0.9397892073150131 -0.192080407223304
C -3.2780373202204487 -2.499108125064708 0.5270210331904033
C -3.432926331960302 0.5807391025198699 0.5415116635510502
C -4.9446197768117175 0.620067536091097 0.2855517476081769
C -5.639589853294401 1.8094290300966835 0.9532438975059088
N -5.217028243895945 3.082635974511803 0.38299426765560607
O -0.8996833494762111 -0.8274009417615606 0.1949504574190811
Si 0.5520535256506143 -1.6287214529070506 0.04255896205499904
C 0.5065056540891087 -3.266087858611345 0.9572521364205571
C 0.9346308628858142 -1.983097226146879 -1.7600065554407403
O 1.7299686588584429 -0.646312806553039 0.7033735445300636
Si 2.300996684059632 0.920801682192317 0.6122750522332231
C 3.21152767378589 1.386104283117267 2.1900311475133867
C 3.478883389916772 1.1250069096864106 -0.8794054182266348
C 4.469350507657401 -0.01038253696487329 -1.170108527994382
C 5.580181412480089 -0.23089054063138342 -0.13805073322529132
N 6.40922768857591 0.9493803020737721 0.07135343415716733
C 0.8942499318592313 2.1586685734797277 0.3879490109053609
H -3.8318637092382786 -0.9895370755794064 -2.302445882300037
H -2.2736606384320246 -1.802887788124056 -2.5096531819685137
H -2.352640072930555 -0.03162865638249257 -2.4967643034999516
H -2.7884132626198403 -3.3893962772087085 0.12140816730329809
H -3.1695945041086198 -2.513628084686367 1.6155894161776263
H -4.343425897268925 -2.5602761473764564 0.28684641256653626
H -3.2396788906125114 0.587135066057234 1.6207022123112411
H -2.949438142742671 1.4675123045824474 0.11704392098472025
H -5.145185163141155 0.638057358451653 -0.7936456945196645
H -5.406426623013403 -0.2986227939470023 0.6690728817417027
H -5.444428539064231 1.805170954407295 2.0313728186297277
H -6.722291913987375 1.7095431296922632 0.8174495913069257
H -4.225779365650582 3.23149156127451 0.5689148516834337
H -5.706577267925366 3.841269129990583 0.8561947161612571
H 1.4791307952788602 -3.7642729863133284 0.9034055229218073
H -0.24364321865220168 -3.933775813986532 0.5236182963122886
H 0.2594334495042242 -3.110986729103693 2.0113631479113403
H 0.9585684516065557 -1.0572294679198677 -2.3414031456243123
H 0.1773762650702608 -2.641649160304353 -2.195495325998728
H 1.907100776553772 -2.474127450651654 -1.8569621638629368
H 2.5159151608344117 1.4139498347653796 3.03449352008922
H 3.9964911410726547 0.6625209599041211 2.4237322263801397
H 3.6706609929163383 2.37417464766144 2.092320150405316
H 4.004207749432132 2.080702601226745 -0.7767912676007273
H 2.8306894210780897 1.227757741396404 -1.759085478081476
H 3.9240164763237186 -0.9538157169833402 -1.294558137439384
H 4.9383814792179175 0.1962232273267742 -2.1414718660383665
H 5.166464123081986 -0.5633532498908158 0.8181117986795517
H 6.226245799689384 -1.0436817199924724 -0.4892701845721296
H 5.85436465239773 1.6978349475579673 0.48263790561368974
H 6.738369920702958 1.3015230517834464 -0.8269921388302471
H 1.2854536802312733 3.1799248072399586 0.3617123976648625
H 0.18123022378374623 2.082784579067773 1.214299529338462
H 0.3602680779234195 1.9710842742424752 -0.5480706408095537


--Link1--
%nprocshared=8
%mem=16GB
%Oldchk=ZWRBLCDTKAWRHT-UHFFFAOYSA-N_conf_2_0.chk
%Chk=ZWRBLCDTKAWRHT-UHFFFAOYSA-N_conf_2_1.chk
# freq B3LYP/6-31G** SCRF=(Solvent=water) volume NMR pop=NPA density=current Geom=AllCheck Guess=Read


--Link1--
%nprocshared=8
%mem=16GB
%Oldchk=ZWRBLCDTKAWRHT-UHFFFAOYSA-N_conf_2_1.chk
%Chk=ZWRBLCDTKAWRHT-UHFFFAOYSA-N_conf_2_2.chk
# TD(NStates=10, Root=1) B3LYP/6-31G** SCRF=(Solvent=water) volume pop=NPA density=current Geom=AllCheck Guess=Read



