%nprocshared=3
%mem=6GB
%Chk=RAUWPNXIALNKQM-UHFFFAOYSA-N_conf_1_0.chk
# opt=CalcFc B3LYP/6-31G** SCRF=(Solvent=water) scf=xqc 

RAUWPNXIALNKQM-UHFFFAOYSA-N_conf_1

0 1
N -2.2776255522281925 -1.3229414053803359 -0.4590674311728476
C -1.0090854606805544 -0.778982710525508 -0.1620234264652364
C 0.09282318796976972 -1.6232998318433187 0.003299319769056449
C 1.3569232367218451 -1.0897749070098197 0.2615631318144451
C 1.5160306112773139 0.29994134339044665 0.3281446670482613
N 2.8353485459457053 0.8655707121495764 0.6320850069353677
O 3.7518337674523226 0.07679391443526608 0.9043554095608292
O 2.957604327346326 2.0984298983372636 0.5971970417725643
C 0.4333565741648288 1.1574503503707496 0.09406112325365881
C -0.8125546666010721 0.6189737636865499 -0.23399256989057693
N -1.9213686874471647 1.4708907504167816 -0.4344994720732631
H -2.396496200534908 -2.2640873684236533 -0.0959303634732547
H -3.0087356279847426 -0.7054085147872232 -0.1087482168440678
H -0.030430079477668126 -2.7022918742988136 -0.04300167433886361
H 2.1959559913911733 -1.7650382670332403 0.41544965401962003
H 0.5568690980754356 2.2363755866736748 0.14126507766405172
H -2.5827600976587726 1.032774959728758 -1.0744958835922584
H -1.6576889677317965 2.3946236001129693 -0.7656613939874352


--Link1--
%nprocshared=3
%mem=6GB
%Oldchk=RAUWPNXIALNKQM-UHFFFAOYSA-N_conf_1_0.chk
%Chk=RAUWPNXIALNKQM-UHFFFAOYSA-N_conf_1_1.chk
# freq B3LYP/6-31G** SCRF=(Solvent=water) volume NMR pop=NPA density=current Geom=AllCheck Guess=Read


--Link1--
%nprocshared=3
%mem=6GB
%Oldchk=RAUWPNXIALNKQM-UHFFFAOYSA-N_conf_1_1.chk
%Chk=RAUWPNXIALNKQM-UHFFFAOYSA-N_conf_1_2.chk
# TD(NStates=10, Root=1) B3LYP/6-31G** SCRF=(Solvent=water) volume pop=NPA density=current Geom=AllCheck Guess=Read



