%nprocshared=3
%mem=6GB
%Chk=RAUWPNXIALNKQM-UHFFFAOYSA-N_conf_0_0.chk
# opt=CalcFc B3LYP/6-31G** SCRF=(Solvent=water) scf=xqc 

RAUWPNXIALNKQM-UHFFFAOYSA-N_conf_0

0 1
N 2.3569066068319207 0.9673840814187592 0.8109573170536758
C 1.039521196637227 0.593507906164017 0.4674013283799715
C -0.04538035598342744 1.1357294736590071 1.1626639679479869
C -1.348715291738822 0.7431303804798496 0.8520482508570352
C -1.5580650369745004 -0.21780964044662396 -0.14486048644248242
N -2.926963610801727 -0.6100368040653793 -0.49868317430319387
O -3.8597385867495446 -0.0048580298848642225 0.04897986170677982
O -3.071463489230497 -1.524463185529988 -1.3227260870366955
C -0.47541532013395255 -0.8197773599537294 -0.7989268396032148
C 0.8274407277333357 -0.4746504968580139 -0.4337903417204972
N 1.9274020200224469 -1.0454824988590956 -1.1117796355395857
H 2.962980458030403 0.8846818056746806 -0.00416777220016062
H 2.4099364539440433 1.9017021605847373 1.2059146554379603
H 0.11557505454814422 1.885495781987487 1.933055709019512
H -2.180719719991969 1.1982153001749123 1.3852503441518087
H -0.636840054864973 -1.56891516822233 -1.5698341179687354
H 2.736856027916093 -1.0762476522509343 -0.49305764236963506
H 1.7266829208063645 -1.9676060540722857 -1.4884453373701505


--Link1--
%nprocshared=3
%mem=6GB
%Oldchk=RAUWPNXIALNKQM-UHFFFAOYSA-N_conf_0_0.chk
%Chk=RAUWPNXIALNKQM-UHFFFAOYSA-N_conf_0_1.chk
# freq B3LYP/6-31G** SCRF=(Solvent=water) volume NMR pop=NPA density=current Geom=AllCheck Guess=Read


--Link1--
%nprocshared=3
%mem=6GB
%Oldchk=RAUWPNXIALNKQM-UHFFFAOYSA-N_conf_0_1.chk
%Chk=RAUWPNXIALNKQM-UHFFFAOYSA-N_conf_0_2.chk
# TD(NStates=10, Root=1) B3LYP/6-31G** SCRF=(Solvent=water) volume pop=NPA density=current Geom=AllCheck Guess=Read



