%nprocshared=3
%mem=6GB
%Chk=APQPRKLAWCIJEK-UHFFFAOYSA-N_conf_4_0.chk
# opt=CalcFc B3LYP/6-31G** SCRF=(Solvent=water) scf=xqc 

APQPRKLAWCIJEK-UHFFFAOYSA-N_conf_4

0 1
N -3.4985822214952305 0.8485655671381535 0.39254937527481504
C -2.553135231810238 0.34410070154871797 -0.6086155104415191
C -1.9213179012908728 -0.9751673268010791 -0.15552726325557978
S -0.7741482404008416 -1.6659490543413231 -1.4008873912494848
S 0.8015525233083484 -0.34187120981187064 -1.3764586415641638
C 1.7889134040901769 -0.9515839619383181 0.037102785178450955
C 3.036503998229762 -0.08688428568264031 0.26035023594083795
N 2.717858198038075 1.284573639135184 0.6647239256897677
H -3.906459113652087 1.719806504477247 0.05301645796217224
H -2.993712565650961 1.0912437824474226 1.2451438411552946
H -1.7909010055618655 1.1116207223256716 -0.7772941326469343
H -3.0948401765877187 0.19770359990983608 -1.5498253450440331
H -1.3911406199574963 -0.8567746075335899 0.7958019920675938
H -2.706084138790626 -1.7228108906217854 0.0060013959583042975
H 2.1010971284370403 -1.980056698961439 -0.17230318049769675
H 1.1702618576767467 -0.9526416619785675 0.9409014226313764
H 3.642213715765894 -0.5423299627723618 1.0515502045408445
H 3.654337374023668 -0.06734649770282802 -0.6451285566962232
H 3.5771963885198326 1.8322342425783287 0.7005490292324058
H 2.1403866271083736 1.7135673985852988 -0.06070498506724864


--Link1--
%nprocshared=3
%mem=6GB
%Oldchk=APQPRKLAWCIJEK-UHFFFAOYSA-N_conf_4_0.chk
%Chk=APQPRKLAWCIJEK-UHFFFAOYSA-N_conf_4_1.chk
# freq B3LYP/6-31G** SCRF=(Solvent=water) volume NMR pop=NPA density=current Geom=AllCheck Guess=Read


--Link1--
%nprocshared=3
%mem=6GB
%Oldchk=APQPRKLAWCIJEK-UHFFFAOYSA-N_conf_4_1.chk
%Chk=APQPRKLAWCIJEK-UHFFFAOYSA-N_conf_4_2.chk
# TD(NStates=10, Root=1) B3LYP/6-31G** SCRF=(Solvent=water) volume pop=NPA density=current Geom=AllCheck Guess=Read



