%nprocshared=3
%mem=6GB
%Chk=APQPRKLAWCIJEK-UHFFFAOYSA-N_conf_2_0.chk
# opt=CalcFc B3LYP/6-31G** SCRF=(Solvent=water) scf=xqc 

APQPRKLAWCIJEK-UHFFFAOYSA-N_conf_2

0 1
N -2.5980647103879937 0.11135339477729483 -0.5078351267494268
C -2.1264718109708673 -1.1331390345415513 0.0971882220286657
C -1.8412736303558757 -1.0000886710139398 1.5975505749480952
S -0.15262266575975514 -0.4302510106164999 2.038425498991871
S 0.03391899898318174 1.4281235775152723 1.177591765175814
C 0.9309453383902687 1.0850561134057606 -0.37951697568075987
C 2.3975251392859445 0.7209460004304536 -0.13067143327267813
N 3.1024968156671235 0.4810801453920726 -1.393801657153394
H -2.594999540307767 0.026418310851000493 -1.5229132543675752
H -1.9567935870544582 0.8704554029172807 -0.271609693486097
H -1.2469649799925204 -1.5071449553320366 -0.438312189243316
H -2.9206280007598084 -1.8756784900062486 -0.040044537781325655
H -1.9429159716512676 -1.9913652024294703 2.053716111196007
H -2.5775123817786265 -0.35651557078189194 2.0922758728361015
H 0.8752671447678464 1.9942823904842986 -0.9886196835243349
H 0.4160529252452506 0.2949331990724653 -0.9352075508864343
H 2.483997760416539 -0.17827602628056818 0.4880101959182819
H 2.9030533512679693 1.5387702493303246 0.3951542086732397
H 4.082438059637483 0.28017804951171305 -1.1921007648155966
H 2.732551745357582 -0.3591378726856905 -1.837752777140279


--Link1--
%nprocshared=3
%mem=6GB
%Oldchk=APQPRKLAWCIJEK-UHFFFAOYSA-N_conf_2_0.chk
%Chk=APQPRKLAWCIJEK-UHFFFAOYSA-N_conf_2_1.chk
# freq B3LYP/6-31G** SCRF=(Solvent=water) volume NMR pop=NPA density=current Geom=AllCheck Guess=Read


--Link1--
%nprocshared=3
%mem=6GB
%Oldchk=APQPRKLAWCIJEK-UHFFFAOYSA-N_conf_2_1.chk
%Chk=APQPRKLAWCIJEK-UHFFFAOYSA-N_conf_2_2.chk
# TD(NStates=10, Root=1) B3LYP/6-31G** SCRF=(Solvent=water) volume pop=NPA density=current Geom=AllCheck Guess=Read



