%nprocshared=4
%mem=8GB
%Chk=CJKRXEBLWJVYJD-UHFFFAOYSA-N_conf_0_0.chk
# opt=CalcFc B3LYP/6-31G** SCRF=(Solvent=water) scf=xqc 

CJKRXEBLWJVYJD-UHFFFAOYSA-N_conf_0

0 1
C -3.4743441296833106 0.0319602259558013 0.9129126152188434
C -2.0753865568555576 -0.5313349908463751 1.1188153418144045
N -1.0350417291028076 0.4905319937675212 0.9931212937285346
C -0.7553820007236721 0.8697015697774939 -0.40191811346625994
C 0.14215341940786388 -0.1511808279488757 -1.141064770377046
N 1.2726340738732786 -0.6502964579480062 -0.3365203099158737
C 2.308610577810175 0.3686136769154366 -0.15359965092696173
C 3.4794447221737 -0.22606760232156642 0.6150599219558948
H -3.6629733716392643 0.8759206486655521 1.5849524840434386
H -4.221986067394706 -0.7388699611248409 1.127290209055054
H -3.633142297916359 0.3686325326664074 -0.11568404202880941
H -2.023652319098278 -0.933227242724767 2.1375665680338547
H -1.8991569963187818 -1.3762209707250084 0.4444121404258068
H -0.15910647413054815 0.0777084245696859 1.3362032052632538
H -1.6722095053006192 1.0491990129667945 -0.9727656191151355
H -0.23022266491823976 1.8317240362898954 -0.3716499772950744
H -0.4735197666691139 -1.018714018466267 -1.4067366855444845
H 0.49661068838473826 0.27590069308299003 -2.0867985441666006
H 1.6820207125317579 -1.45138781231709 -0.8182653523100658
H 1.9206503340412275 1.2233421375080733 0.40991191541856925
H 2.666276541109976 0.7320139548434974 -1.1237619779828028
H 3.1645543405797554 -0.5838658917782928 1.601233946851488
H 3.9270113482829854 -1.065160340392062 0.07167445738600853
H 4.256157121555704 0.5310772095839614 0.7633764082954573


--Link1--
%nprocshared=4
%mem=8GB
%Oldchk=CJKRXEBLWJVYJD-UHFFFAOYSA-N_conf_0_0.chk
%Chk=CJKRXEBLWJVYJD-UHFFFAOYSA-N_conf_0_1.chk
# freq B3LYP/6-31G** SCRF=(Solvent=water) volume NMR pop=NPA density=current Geom=AllCheck Guess=Read


--Link1--
%nprocshared=4
%mem=8GB
%Oldchk=CJKRXEBLWJVYJD-UHFFFAOYSA-N_conf_0_1.chk
%Chk=CJKRXEBLWJVYJD-UHFFFAOYSA-N_conf_0_2.chk
# TD(NStates=10, Root=1) B3LYP/6-31G** SCRF=(Solvent=water) volume pop=NPA density=current Geom=AllCheck Guess=Read



