%nprocshared=4
%mem=8GB
%Chk=CJKRXEBLWJVYJD-UHFFFAOYSA-N_conf_3_0.chk
# opt=CalcFc B3LYP/6-31G** SCRF=(Solvent=water) scf=xqc 

CJKRXEBLWJVYJD-UHFFFAOYSA-N_conf_3

0 1
C 3.75373911380008 0.054526401725956235 0.37608910730141315
C 2.924170870541339 0.6600396608019089 -0.7477864146836746
N 1.6268165323739396 0.010216762061059117 -0.9288011432464123
C 0.667638565591122 0.35357230391782624 0.12694615149271524
C -0.7205542013007497 -0.24872858525363153 -0.17891791732592766
N -1.6658260168619006 0.03754534250694594 0.9093179068897489
C -2.977188528866447 -0.5748647532746074 0.6897197744977591
C -3.774869861189498 0.10010789143285503 -0.4169309588991064
H 3.2927610349492484 0.21863338708144006 1.3546883386469726
H 4.7469878802025365 0.5149539946458466 0.396591005829393
H 3.8875209433366638 -1.022926109019204 0.23325158398600201
H 2.80134026258446 1.7382080999805827 -0.5925685192508969
H 3.4829069661462935 0.547974198689699 -1.6840500372186158
H 1.7487393886609492 -1.0010217984908618 -0.9674880713906823
H 1.0182135375506327 -0.02648968500095328 1.0934310440767965
H 0.5706996030584249 1.443348474138621 0.20629094560663344
H -0.6232159337016553 -1.3339157696159352 -0.30812745213627485
H -1.0827778069065392 0.1748493322737437 -1.1222336717908363
H -1.2799324097873697 -0.32488299035827833 1.781208196208453
H -2.8800006594847853 -1.64858602232405 0.491306568652207
H -3.5479015924811224 -0.4802504792795176 1.6209291517177957
H -4.788045683953765 -0.31385253543710595 -0.45198200603371597
H -3.321442224844874 -0.05628717720417872 -1.4002284477478832
H -3.8597797794169826 1.1778300560018693 -0.2420400710091885


--Link1--
%nprocshared=4
%mem=8GB
%Oldchk=CJKRXEBLWJVYJD-UHFFFAOYSA-N_conf_3_0.chk
%Chk=CJKRXEBLWJVYJD-UHFFFAOYSA-N_conf_3_1.chk
# freq B3LYP/6-31G** SCRF=(Solvent=water) volume NMR pop=NPA density=current Geom=AllCheck Guess=Read


--Link1--
%nprocshared=4
%mem=8GB
%Oldchk=CJKRXEBLWJVYJD-UHFFFAOYSA-N_conf_3_1.chk
%Chk=CJKRXEBLWJVYJD-UHFFFAOYSA-N_conf_3_2.chk
# TD(NStates=10, Root=1) B3LYP/6-31G** SCRF=(Solvent=water) volume pop=NPA density=current Geom=AllCheck Guess=Read



