%nprocshared=4
%mem=8GB
%Chk=CJKRXEBLWJVYJD-UHFFFAOYSA-N_conf_4_0.chk
# opt=CalcFc B3LYP/6-31G** SCRF=(Solvent=water) scf=xqc 

CJKRXEBLWJVYJD-UHFFFAOYSA-N_conf_4

0 1
C 4.0418242172340415 0.32660930098540386 0.37396483680220194
C 2.6580401104480256 -0.25839893648083895 0.12927152481684348
N 1.645543172468727 0.5908845552457541 0.7564897341920307
C 0.29575193083184376 0.016390703262325043 0.6797456679098404
C -0.30516805594780816 -0.011142514840968714 -0.7436767208945346
N -1.6641661469726927 -0.5661504493416388 -0.8118129589229738
C -2.6782746006891194 0.36597097931844286 -0.3262371725395906
C -4.0591912052885455 -0.2505404726848168 -0.49441177616813614
H 4.268698585914605 0.3772332035308268 1.4443131512815304
H 4.804374605642808 -0.2982676335699175 -0.10210149607115408
H 4.124475749564743 1.3360046901812488 -0.04314579859210909
H 2.6228962637738116 -1.2725968268141183 0.5431416649744403
H 2.496359843327728 -0.32150887828499414 -0.9514205053017336
H 1.8864124221267544 0.7224822590480452 1.7392522964415655
H -0.34386876337833283 0.6324725881469736 1.321451635952622
H 0.29053761465993877 -0.9913833588133956 1.1136018686653866
H 0.3177168723753931 -0.6450997263943479 -1.3840026686293387
H -0.280727382972527 0.9911147241236228 -1.1890815547597937
H -1.7096527200436524 -1.438503116998604 -0.2871228019103909
H -2.5249951910148942 0.6016355621622905 0.7318259613680697
H -2.6385459766501604 1.3021041544765666 -0.8944476074604871
H -4.265962225349184 -0.4790294207665645 -1.5454955979920197
H -4.8278317350182975 0.4457482109162055 -0.14375672404921455
H -4.154247385043676 -1.1760295964076446 0.08365504088707924


--Link1--
%nprocshared=4
%mem=8GB
%Oldchk=CJKRXEBLWJVYJD-UHFFFAOYSA-N_conf_4_0.chk
%Chk=CJKRXEBLWJVYJD-UHFFFAOYSA-N_conf_4_1.chk
# freq B3LYP/6-31G** SCRF=(Solvent=water) volume NMR pop=NPA density=current Geom=AllCheck Guess=Read


--Link1--
%nprocshared=4
%mem=8GB
%Oldchk=CJKRXEBLWJVYJD-UHFFFAOYSA-N_conf_4_1.chk
%Chk=CJKRXEBLWJVYJD-UHFFFAOYSA-N_conf_4_2.chk
# TD(NStates=10, Root=1) B3LYP/6-31G** SCRF=(Solvent=water) volume pop=NPA density=current Geom=AllCheck Guess=Read



