%nprocshared=4
%mem=8GB
%Chk=CJKRXEBLWJVYJD-UHFFFAOYSA-N_conf_1_0.chk
# opt=CalcFc B3LYP/6-31G** SCRF=(Solvent=water) scf=xqc 

CJKRXEBLWJVYJD-UHFFFAOYSA-N_conf_1

0 1
C 4.148664267739732 -0.027767686303767303 0.35161704747338046
C 2.733538491588525 -0.4486802053774106 0.7172932339217205
N 1.8022471265699094 -0.005615180826139937 -0.31904124518424043
C 0.4226648333974015 -0.383697319250651 0.018704306898392958
C -0.5480942968238486 0.041560666613564674 -1.1022309601285984
N -1.9461901019459567 -0.3409135309986429 -0.8602625053913677
C -2.5772155180469967 0.4660490683773842 0.18323809670298166
C -4.04938268600329 0.09688168859206754 0.2970499032323451
H 4.852432124534621 -0.36538426101282495 1.1192430487811447
H 4.457350681917266 -0.46448493165078264 -0.6042452693693369
H 4.231816697222042 1.0616306240707987 0.27433136596369695
H 2.7016050738282718 -1.5397497770501591 0.814709290416411
H 2.468688573151288 -0.010898173923803796 1.6866361013212348
H 1.8606204589437094 1.0071983375858866 -0.42044610085462714
H 0.13906145637743791 0.09281332091087939 0.9636268614671192
H 0.3566375110115633 -1.4703683381705535 0.15237551411836184
H -0.4780070682309052 1.1214138783069343 -1.2847308296337936
H -0.23238465976680647 -0.449418122123096 -2.0314929270318873
H -2.4659463357895803 -0.22373522005209778 -1.730556197889049
H -2.100135405039638 0.2899292689395999 1.1524985629526046
H -2.49572831159285 1.533602358800997 -0.050993396468715
H -4.581655323983961 0.2905733480576525 -0.6404235451233552
H -4.173845027289926 -0.9613378401979199 0.5507746212709356
H -4.526742561767775 0.6903980266820818 1.0834695534034757


--Link1--
%nprocshared=4
%mem=8GB
%Oldchk=CJKRXEBLWJVYJD-UHFFFAOYSA-N_conf_1_0.chk
%Chk=CJKRXEBLWJVYJD-UHFFFAOYSA-N_conf_1_1.chk
# freq B3LYP/6-31G** SCRF=(Solvent=water) volume NMR pop=NPA density=current Geom=AllCheck Guess=Read


--Link1--
%nprocshared=4
%mem=8GB
%Oldchk=CJKRXEBLWJVYJD-UHFFFAOYSA-N_conf_1_1.chk
%Chk=CJKRXEBLWJVYJD-UHFFFAOYSA-N_conf_1_2.chk
# TD(NStates=10, Root=1) B3LYP/6-31G** SCRF=(Solvent=water) volume pop=NPA density=current Geom=AllCheck Guess=Read



