%nprocshared=4
%mem=8GB
%Chk=CJKRXEBLWJVYJD-UHFFFAOYSA-N_conf_2_0.chk
# opt=CalcFc B3LYP/6-31G** SCRF=(Solvent=water) scf=xqc 

CJKRXEBLWJVYJD-UHFFFAOYSA-N_conf_2

0 1
C -3.7566572511143463 0.5333385257963399 -0.19769525791483264
C -2.7774218686449115 -0.6102259629414951 0.025782513031867706
N -1.4645561842640054 -0.3574588637172863 -0.5596407193983092
C -0.7340306084316209 0.7293620678696285 0.10476949175635299
C 0.7752417949598404 0.6376968713531332 -0.21505744709998378
N 1.3116028232566517 -0.677974949765949 0.17366247418285805
C 2.713137296444266 -0.8487196720245135 -0.20560126998252146
C 3.6772509407369425 -0.0556896006765985 0.6657826876917957
H -4.7490180222058 0.25313614949434854 0.17057507408145134
H -3.4498375901614513 1.4394521884034432 0.3339885402563693
H -3.8492738421921384 0.7718160727122313 -1.2625332867707912
H -3.1889713808533307 -1.5091573011037176 -0.44727778393509626
H -2.690697301054086 -0.831892178723151 1.0958512587660016
H -0.8799036269861282 -1.1962278224774108 -0.4798102585063021
H -0.860523045114395 0.6728966255117034 1.1932968467241818
H -1.1125606640080714 1.699943096370061 -0.2331964671790639
H 1.2920082277097238 1.441700009531932 0.3198972172351046
H 0.9200751939005971 0.7968949793333475 -1.2906250220405229
H 1.2055413610187102 -0.8025369171842471 1.179832793782691
H 2.955528280729931 -1.9127091421671731 -0.10336282454583763
H 2.8630674654634354 -0.601274221928218 -1.2628889936946086
H 4.710279862612567 -0.30030792849967985 0.3975143935695399
H 3.548309392978153 1.0230180128617772 0.5360865358195841
H 3.5414087452195546 -0.2950800380285947 1.7257130014686042


--Link1--
%nprocshared=4
%mem=8GB
%Oldchk=CJKRXEBLWJVYJD-UHFFFAOYSA-N_conf_2_0.chk
%Chk=CJKRXEBLWJVYJD-UHFFFAOYSA-N_conf_2_1.chk
# freq B3LYP/6-31G** SCRF=(Solvent=water) volume NMR pop=NPA density=current Geom=AllCheck Guess=Read


--Link1--
%nprocshared=4
%mem=8GB
%Oldchk=CJKRXEBLWJVYJD-UHFFFAOYSA-N_conf_2_1.chk
%Chk=CJKRXEBLWJVYJD-UHFFFAOYSA-N_conf_2_2.chk
# TD(NStates=10, Root=1) B3LYP/6-31G** SCRF=(Solvent=water) volume pop=NPA density=current Geom=AllCheck Guess=Read



