%nprocshared=6
%mem=12GB
%Chk=DDAPSNKEOHDLKB-UHFFFAOYSA-N_conf_1_0.chk
# opt=CalcFc B3LYP/6-31G** SCRF=(Solvent=water) scf=xqc 

DDAPSNKEOHDLKB-UHFFFAOYSA-N_conf_1

0 1
N -0.11853280524237758 -2.8094413985734668 -1.1407941330458506
C 0.9097186685543824 -1.9071907274962145 -0.7966121068675197
C 2.174641660608727 -2.1074169158484155 -1.352598264322506
C 3.2046663989529773 -1.1954506218068324 -1.1325491525733618
C 2.9881710382027786 -0.03530153269831729 -0.3816903050280517
C 4.043008772853089 0.8677396187514284 -0.16613152370242018
C 3.8494487931546675 2.0369731966462012 0.5665874115145263
C 2.5963006211895765 2.319537711206796 1.0907617151675384
C 1.539116919519014 1.4305115154075536 0.8832167182650903
C 1.7012517596601147 0.23081902648892144 0.1475004956145458
C 0.6437129932332762 -0.7072466938484299 -0.08709671987703435
C -0.7292683545350821 -0.44634195981606334 0.4354356832813954
C -1.6699692959284351 0.31196408800331005 -0.3340578683683285
C -1.3818510182267703 0.8606117040231883 -1.607447526352804
C -2.324489208271454 1.6011800014114113 -2.324419394571172
C -3.5877222914072093 1.812686335476942 -1.7909998579643496
C -3.907898288740477 1.2794570673501326 -0.5441267496578028
C -2.9686396742232417 0.5326252883867276 0.18733353722925983
C -3.320164318514759 -0.0076612987115657295 1.4287904638045976
C -2.4048873539681774 -0.7519202451726673 2.170002584870539
C -1.0983877589705886 -0.9401798335964079 1.7144429030282333
N -0.25825766643202375 -1.8029641171629989 2.4493506493711057
H 0.20750817141744296 -3.756737665356739 -1.2969885362527298
H -0.8910829274647918 -2.7842656367009777 -0.47667456145312165
H 2.3690556682395645 -2.984163590595162 -1.9648535688116584
H 4.181166582920449 -1.3983121004267354 -1.5670861431453778
H 5.031473756091989 0.6663109197773677 -0.5740873876753425
H 4.675161512626887 2.7258754287948204 0.7223933687879949
H 2.433493459540504 3.231543043621355 1.6589651583438516
H 0.5704238014238096 1.6905048465523032 1.3063467561035462
H -0.40460541409793493 0.7090077068523529 -2.0626772872772365
H -2.0661007199558687 2.0058217184596048 -3.299276126922662
H -4.32562474614322 2.3860316974534515 -2.3452040150084574
H -4.906056838153602 1.4495054423923763 -0.14601248248234044
H -4.322417740929562 0.13312721807996347 1.8278088616861994
H -2.723203218225987 -1.1865697746044812 3.1139947041306817
H 0.7287877651163397 -1.6685626259787467 2.2405192848417856
H -0.4379487038741994 -1.7921068367421418 3.44793341531914


--Link1--
%nprocshared=6
%mem=12GB
%Oldchk=DDAPSNKEOHDLKB-UHFFFAOYSA-N_conf_1_0.chk
%Chk=DDAPSNKEOHDLKB-UHFFFAOYSA-N_conf_1_1.chk
# freq B3LYP/6-31G** SCRF=(Solvent=water) volume NMR pop=NPA density=current Geom=AllCheck Guess=Read


--Link1--
%nprocshared=6
%mem=12GB
%Oldchk=DDAPSNKEOHDLKB-UHFFFAOYSA-N_conf_1_1.chk
%Chk=DDAPSNKEOHDLKB-UHFFFAOYSA-N_conf_1_2.chk
# TD(NStates=10, Root=1) B3LYP/6-31G** SCRF=(Solvent=water) volume pop=NPA density=current Geom=AllCheck Guess=Read



