%nprocshared=6
%mem=12GB
%Chk=DDAPSNKEOHDLKB-UHFFFAOYSA-N_conf_0_0.chk
# opt=CalcFc B3LYP/6-31G** SCRF=(Solvent=water) scf=xqc 

DDAPSNKEOHDLKB-UHFFFAOYSA-N_conf_0

0 1
N 0.045509236845938626 -3.001631367879206 -0.5520561727402842
C -0.9339174763788554 -1.9942233916455532 -0.42493991954109966
C -2.268665778576287 -2.3469990302876367 -0.6344902405397963
C -3.2939152941361205 -1.4305877811931182 -0.4106478874496065
C -3.0173755554875656 -0.14755511980755198 0.07313589053777445
C -4.066987863648889 0.760800276598854 0.2926902269467858
C -3.819082046712831 2.038219796392327 0.7909675142520041
C -2.517510116366707 2.421591120027188 1.0807316550977024
C -1.4653638754487557 1.5280777516649653 0.8669998322565531
C -1.6798113797105618 0.2258300714508169 0.3534745998605194
C -0.6279528620337755 -0.7165406252939792 0.11347925893284276
C 0.791093877240788 -0.36124184972644496 0.40717730401473656
C 1.59537810373616 0.2955782967479349 -0.5802946592497382
C 1.1305618312591663 0.6329984784006619 -1.875254421500326
C 1.946914564208403 1.2730131261218833 -2.8106837071625335
C 3.2544089804855614 1.597646965362561 -2.4789278026401647
C 3.7427199899731156 1.2843085198008033 -1.212111666072283
C 2.9322106643134433 0.6400132416062468 -0.26206549523622114
C 3.4416074344008365 0.348676225458154 1.0076758279158484
C 2.6574723394355795 -0.2956117805590468 1.9621827324615535
C 1.3557871298128072 -0.7026730929290707 1.6635952658618178
N 0.5769217988225506 -1.2550143152599196 2.7019169441914768
H 0.9846551170526484 -2.628833521656124 -0.6743718456713305
H -0.1780714941328545 -3.6997984893459073 -1.2535900057095732
H -2.523145776943116 -3.3466212967567635 -0.977068246268751
H -4.319312718735687 -1.737644160032285 -0.6051360410376362
H -5.095022119724897 0.475929542133929 0.07885733605799615
H -4.641583247533331 2.7282794323647184 0.9573378512232141
H -2.313053678540153 3.4126190166057406 1.4768440785116193
H -0.45922177748095233 1.8623474215243663 1.1143177578153736
H 0.10957162650721845 0.39965935029165917 -2.17212332944947
H 1.554679014123061 1.518070538832811 -3.794152111119954
H 3.893558792103403 2.0978928811202655 -3.201355701482211
H 4.768915916522171 1.5520164080169867 -0.9685534103169564
H 4.457723194832738 0.6318773492468821 1.2738215605225498
H 3.0744728287244354 -0.4810244647774107 2.9486272286016324
H -0.21102956695353237 -1.7949000970950906 2.346697022695136
H 1.1168601881447067 -1.7845454255243873 3.37729277543063


--Link1--
%nprocshared=6
%mem=12GB
%Oldchk=DDAPSNKEOHDLKB-UHFFFAOYSA-N_conf_0_0.chk
%Chk=DDAPSNKEOHDLKB-UHFFFAOYSA-N_conf_0_1.chk
# freq B3LYP/6-31G** SCRF=(Solvent=water) volume NMR pop=NPA density=current Geom=AllCheck Guess=Read


--Link1--
%nprocshared=6
%mem=12GB
%Oldchk=DDAPSNKEOHDLKB-UHFFFAOYSA-N_conf_0_1.chk
%Chk=DDAPSNKEOHDLKB-UHFFFAOYSA-N_conf_0_2.chk
# TD(NStates=10, Root=1) B3LYP/6-31G** SCRF=(Solvent=water) volume pop=NPA density=current Geom=AllCheck Guess=Read



