%nprocshared=6
%mem=12GB
%Chk=JSKXMAPMKXVJKT-UHFFFAOYSA-N_conf_1_0.chk
# opt=CalcFc B3LYP/6-31G** SCRF=(Solvent=water) scf=xqc 

JSKXMAPMKXVJKT-UHFFFAOYSA-N_conf_1

0 1
C -7.4061055520440275 0.5485480396251367 -1.112439554548445
C -5.998422361551399 0.4446703664077785 -0.6078222657361148
C -5.6376079751726795 -0.5588014260285925 0.2929715258144507
C -4.330162161896385 -0.6297224546380271 0.7869051533553666
C -3.344225531833414 0.28293122852287483 0.38638361328367415
N -2.074208729863873 0.18889983021243928 0.9668074295953866
C -0.9518199236160517 0.9040100847415986 0.36784330523488645
C 0.36053470584757075 0.5621514594832424 1.072374122125885
C 0.8791251675654512 -0.8235181322141178 0.6885238232241015
N 2.1756865077219203 -1.070083798300151 1.3110485169160726
C 3.37185191466053 -0.8313257081945475 0.6321679067314806
C 3.4877973259676227 0.008154726630762506 -0.47982081189029424
C 4.730114703595815 0.26062123503244405 -1.0769281292505337
C 5.896243956125736 -0.30969805136927664 -0.5621331779837386
C 7.2297448950706915 -0.010672360444604016 -1.1778519140067458
C 5.802324984398891 -1.1051927198205675 0.5806603292159808
C 4.5572412675002525 -1.3526725746102792 1.1699759989811642
C -3.7333203792270573 1.3158253645071243 -0.47235108375042945
C -5.03995987569731 1.3931723602575445 -0.971902233713466
H -8.00145439457211 1.1702833522941742 -0.43674399568218486
H -7.86942243125395 -0.4411671962970595 -1.1835484275351182
H -7.430115738352475 0.9906378316055793 -2.1140473017624357
H -6.370763875081303 -1.2890523720311529 0.6269021815072428
H -4.088204255652077 -1.4124223736786004 1.501602415171828
H -1.86900971040545 -0.7626176750076264 1.2564339672508984
H -0.8706994668054009 0.6768671733300357 -0.7021096510771937
H -1.11572960893369 1.982822841916605 0.47573605708824124
H 1.1045716191456463 1.3197678707419462 0.7986738544185252
H 0.2384516812170733 0.6267201894406287 2.16109020819446
H 0.1830126855548333 -1.5830873813300104 1.0630321263223967
H 0.9157752314591555 -0.9605551019223547 -0.3985454546543438
H 2.206178267369201 -1.9367064283737816 1.8426097692583905
H 2.61663076396167 0.4915608591746892 -0.9090687368223408
H 4.77625508251142 0.9157180198561062 -1.9438198999392668
H 7.133770201852306 0.1538602632060974 -2.256266778731726
H 7.661422418482022 0.8847757949417258 -0.7202613432075389
H 7.921127269430392 -0.8483107548102599 -1.0378287882649366
H 6.6954672025490645 -1.533164498331177 1.0293872780028663
H 4.522617666277977 -1.9620258813454456 2.06984458176454
H -3.032597682906622 2.089264679736836 -0.7702238366038411
H -5.302115863399786 2.209533317082204 -1.6409828888121505


--Link1--
%nprocshared=6
%mem=12GB
%Oldchk=JSKXMAPMKXVJKT-UHFFFAOYSA-N_conf_1_0.chk
%Chk=JSKXMAPMKXVJKT-UHFFFAOYSA-N_conf_1_1.chk
# freq B3LYP/6-31G** SCRF=(Solvent=water) volume NMR pop=NPA density=current Geom=AllCheck Guess=Read


--Link1--
%nprocshared=6
%mem=12GB
%Oldchk=JSKXMAPMKXVJKT-UHFFFAOYSA-N_conf_1_1.chk
%Chk=JSKXMAPMKXVJKT-UHFFFAOYSA-N_conf_1_2.chk
# TD(NStates=10, Root=1) B3LYP/6-31G** SCRF=(Solvent=water) volume pop=NPA density=current Geom=AllCheck Guess=Read



