%nprocshared=6
%mem=12GB
%Chk=JSKXMAPMKXVJKT-UHFFFAOYSA-N_conf_0_0.chk
# opt=CalcFc B3LYP/6-31G** SCRF=(Solvent=water) scf=xqc 

JSKXMAPMKXVJKT-UHFFFAOYSA-N_conf_0

0 1
C 7.287520868759806 0.3798557930927211 0.6121861205883428
C 5.924491052043728 0.11801296954413844 0.04646683833588978
C 5.776216256672515 -0.4682954641185754 -1.2112556735030588
C 4.500596189708542 -0.7393048549945711 -1.7193145049383538
C 3.339205986395229 -0.4216395136166783 -1.0005430594386604
N 2.1049465484610486 -0.7815332427122009 -1.54623004082509
C 0.8506955816823303 -0.24976717098704118 -1.0169196851562428
C 0.25959567580282833 -1.2178258288871047 0.008218703245674495
C -1.0145694586439575 -0.6656448865437364 0.6443057515472808
N -2.0824481892765534 -0.5841381385398804 -0.3471425614652406
C -3.3479658234357386 -0.12105698805424826 0.036420196757629336
C -4.426834208862638 -0.34376278026657997 -0.8312299918864372
C -5.707200099786628 0.14521996509750806 -0.5488852981384876
C -5.934092726150981 0.9076254840463599 0.5980332177917272
C -7.309021425431078 1.4079620032454165 0.9238762936503386
C -4.862347625384732 1.1588512419379318 1.457806314709683
C -3.5829800241152525 0.6664977366829364 1.1676214587581715
C 3.5049020282099868 0.11424418393405328 0.279976666426792
C 4.778144083857722 0.3900810805372445 0.7961767414429162
H 7.637244841700337 -0.4958056851392313 1.1676273478794137
H 7.27121669922859 1.2432502324420434 1.2856830800536472
H 8.004820330272738 0.6035220841255015 -0.1845503115518835
H 6.64921601029128 -0.7277223131084282 -1.80520679770717
H 4.421411964289498 -1.212736386422648 -2.694954406667625
H 2.1307525685029054 -0.7818587298076926 -2.563291219444268
H 0.15324055053810376 -0.14914521406963624 -1.8572357658182057
H 0.9761866939560265 0.7586916828103334 -0.6057188033281676
H 0.9877820232759297 -1.4143013262089819 0.8037452520366613
H 0.056979486966126355 -2.184298363378054 -0.47088417911527713
H -1.3198255323156343 -1.3323783853034004 1.4597160044035973
H -0.7970783456307072 0.32090072417904886 1.0693627894141857
H -2.1690996057352456 -1.4337745121571894 -0.9026897301229259
H -4.278349780075957 -0.9083999571276967 -1.7484452280999683
H -6.519909267756355 -0.06713258524650577 -1.2392815065546217
H -7.260605094193171 2.347686181602862 1.4841642804555326
H -7.880208448905225 1.6042776367592646 0.010362735926038168
H -7.8449546617488 0.6658251210390118 1.5234572043006072
H -5.008679146226898 1.7503027396729052 2.3587363484430317
H -2.781197151214085 0.9150980279083164 1.854929092236023
H 2.6491242923360745 0.330976683012518 0.9104817009575348
H 4.863076881938257 0.8132012858147312 1.794424624400222


--Link1--
%nprocshared=6
%mem=12GB
%Oldchk=JSKXMAPMKXVJKT-UHFFFAOYSA-N_conf_0_0.chk
%Chk=JSKXMAPMKXVJKT-UHFFFAOYSA-N_conf_0_1.chk
# freq B3LYP/6-31G** SCRF=(Solvent=water) volume NMR pop=NPA density=current Geom=AllCheck Guess=Read


--Link1--
%nprocshared=6
%mem=12GB
%Oldchk=JSKXMAPMKXVJKT-UHFFFAOYSA-N_conf_0_1.chk
%Chk=JSKXMAPMKXVJKT-UHFFFAOYSA-N_conf_0_2.chk
# TD(NStates=10, Root=1) B3LYP/6-31G** SCRF=(Solvent=water) volume pop=NPA density=current Geom=AllCheck Guess=Read



