%nprocshared=6
%mem=12GB
%Chk=JSKXMAPMKXVJKT-UHFFFAOYSA-N_conf_3_0.chk
# opt=CalcFc B3LYP/6-31G** SCRF=(Solvent=water) scf=xqc 

JSKXMAPMKXVJKT-UHFFFAOYSA-N_conf_3

0 1
C -6.952279256355006 1.090995135963905 0.24936356905183174
C -5.586905641498967 0.47421120443708087 0.29533031978402663
C -5.062886781571816 -0.004134544048459355 1.497318017433606
C -3.801437081102264 -0.6095667363322408 1.5283186912268505
C -3.021660842676461 -0.7425790622183305 0.3711338710278976
N -1.7993353942647599 -1.3999416923297947 0.4626472733649807
C -0.7698502817689891 -1.311536212805896 -0.5701305178999284
C -0.13708220048400688 0.07784086568699133 -0.6704363342269571
C 0.6297815605714104 0.5026391995659945 0.5815920045976838
N 1.7707204718001126 -0.3718361450982005 0.8371897554136096
C 3.0386868669181126 -0.10149076521825999 0.3179874245448125
C 3.2859918445769245 0.777779132392291 -0.7400209335839134
C 4.576768433598296 0.9508717271330296 -1.2579231518574918
C 5.655048980676201 0.23107950038334338 -0.7387385534806957
C 7.028811661648455 0.39020631070834105 -1.3171575104817779
C 5.413709119170998 -0.6896973327131733 0.28161344492553647
C 4.121735151083327 -0.8550280104073233 0.7937659774527128
C -3.582073060093677 -0.30776683245970904 -0.8336473017972833
C -4.843789703454599 0.3000298112179345 -0.8741122989926452
H -7.710023491112715 0.314132153812302 0.10719267379209385
H -7.028081366123142 1.8130936438917113 -0.5705803351838986
H -7.1674180634513815 1.630415650390432 1.1778533700767777
H -5.632727394439151 0.08106132334252734 2.419437536819144
H -3.4305217622268516 -0.9846394376323809 2.4790487388968816
H -1.4237168507592 -1.4401792613181987 1.4049627256288828
H -1.1803037245721852 -1.606675157290436 -1.5426428872312181
H 0.00161091425405188 -2.0566501153659833 -0.3434758844996557
H 0.5324825336432351 0.081691462450788 -1.5379176663451706
H -0.9082675120312071 0.8296240550019395 -0.8736099467586534
H -0.036847517415750396 0.4596238507273407 1.451066135831019
H 0.9412268089542799 1.551323828197717 0.5057266040536851
H 1.826464316261196 -0.6744663900493447 1.8072826270977986
H 2.483933926285166 1.3539194763378477 -1.1896932659027513
H 4.727500764918247 1.649474319158329 -2.0775653218858374
H 7.159635459714421 -0.291705712022083 -2.1637759259334284
H 7.796711270584904 0.17263216501289877 -0.5671788765063283
H 7.191309713957468 1.4179353436907483 -1.6600392706386098
H 6.224125406693631 -1.2935301804067854 0.682664128328226
H 3.9658783996343088 -1.5945529720415905 1.5755150598996743
H -3.054904288943518 -0.440414908014251 -1.7733955353039847
H -5.242021390596784 0.6258113082698229 -1.8322407311482278


--Link1--
%nprocshared=6
%mem=12GB
%Oldchk=JSKXMAPMKXVJKT-UHFFFAOYSA-N_conf_3_0.chk
%Chk=JSKXMAPMKXVJKT-UHFFFAOYSA-N_conf_3_1.chk
# freq B3LYP/6-31G** SCRF=(Solvent=water) volume NMR pop=NPA density=current Geom=AllCheck Guess=Read


--Link1--
%nprocshared=6
%mem=12GB
%Oldchk=JSKXMAPMKXVJKT-UHFFFAOYSA-N_conf_3_1.chk
%Chk=JSKXMAPMKXVJKT-UHFFFAOYSA-N_conf_3_2.chk
# TD(NStates=10, Root=1) B3LYP/6-31G** SCRF=(Solvent=water) volume pop=NPA density=current Geom=AllCheck Guess=Read



