%nprocshared=4
%mem=8GB
%Chk=VXPJBVRYAHYMNY-UHFFFAOYSA-N_conf_2_0.chk
# opt=CalcFc B3LYP/6-31G** SCRF=(Solvent=water) scf=xqc 

VXPJBVRYAHYMNY-UHFFFAOYSA-N_conf_2

0 1
C -3.610665588413172 -0.8302607995496076 -0.6743949811650902
N -3.2129449892731032 -0.32448713477657465 0.6307469328966991
C -2.427682796980263 0.9156030524830053 0.5391301858752889
C -0.9941736975054426 0.7134226567270507 0.021097471049624623
O -0.3393908145919475 -0.27479123556784085 0.8240863764409976
C 0.9727486500590482 -0.6010388063612906 0.3598266342627758
C 2.0035293823358487 0.48224417140607734 0.7213974868219565
N 3.4046551033615136 0.09985576102132238 0.518313827232072
C 3.7481469685195874 -0.06496302374123608 -0.8859134644760845
H -4.233620169626804 -1.7204105530803386 -0.5418018802686022
H -2.7495649218070684 -1.1186252076263468 -1.2845149263243225
H -4.206626907009468 -0.09227892827299762 -1.220837051755236
H -2.6180588700105583 -1.0205025713977802 1.089714254695244
H -2.3660309562828865 1.3191126715215242 1.556831202537935
H -2.951073816722007 1.664455343390523 -0.06614863082839456
H -1.0044609521967358 0.39435788572596664 -1.026755310505786
H -0.4560773771573419 1.6640209768338938 0.09259753369279554
H 0.9485449240007269 -0.7988544532737392 -0.7177212455549078
H 1.2487584610123725 -1.5386925523824901 0.8551623706433429
H 1.8754045222515852 0.7399036661034238 1.7799184476127217
H 1.791312689309217 1.4094036844131514 0.17654113239005645
H 3.602736726429111 -0.7629567659058243 1.0250173715924085
H 4.821080482869383 -0.26239347402380786 -0.974579742024149
H 3.2188526046234274 -0.9076699097936216 -1.3405025978359921
H 3.534601342804614 0.8441407313409547 -1.4572113970054246


--Link1--
%nprocshared=4
%mem=8GB
%Oldchk=VXPJBVRYAHYMNY-UHFFFAOYSA-N_conf_2_0.chk
%Chk=VXPJBVRYAHYMNY-UHFFFAOYSA-N_conf_2_1.chk
# freq B3LYP/6-31G** SCRF=(Solvent=water) volume NMR pop=NPA density=current Geom=AllCheck Guess=Read


--Link1--
%nprocshared=4
%mem=8GB
%Oldchk=VXPJBVRYAHYMNY-UHFFFAOYSA-N_conf_2_1.chk
%Chk=VXPJBVRYAHYMNY-UHFFFAOYSA-N_conf_2_2.chk
# TD(NStates=10, Root=1) B3LYP/6-31G** SCRF=(Solvent=water) volume pop=NPA density=current Geom=AllCheck Guess=Read



