%nprocshared=4
%mem=8GB
%Chk=VXPJBVRYAHYMNY-UHFFFAOYSA-N_conf_1_0.chk
# opt=CalcFc B3LYP/6-31G** SCRF=(Solvent=water) scf=xqc 

VXPJBVRYAHYMNY-UHFFFAOYSA-N_conf_1

0 1
C 3.613947422692117 0.8806145634755324 0.9318946578960389
N 2.5882255721922505 1.556736782780839 0.1516643873403473
C 1.983848324462786 0.6803403570623481 -0.8625521133219325
C 1.0384322590388169 -0.386596837657991 -0.2868988800317864
O 0.05510606983308441 0.2516304007897966 0.5342419237531559
C -0.8701474950995085 -0.6696816180902916 1.1250872207857745
C -2.000842361675446 -1.0482557296140138 0.1539572755538415
N -2.76457233256449 0.14338194938252272 -0.23429081810494334
C -3.682471445321703 -0.1421902359445526 -1.325032201702204
H 4.417205905306926 0.5051994075065217 0.28984464475437627
H 4.061147336483244 1.59198359715419 1.6333072116662104
H 3.20634100189044 0.05166388262748825 1.5180734553416375
H 1.8335062889502751 1.8480226430267375 0.7805399630318858
H 1.397308338135791 1.3300949657512933 -1.5230025142675447
H 2.7555839819664403 0.21265662666409074 -1.4844569672013601
H 0.5509573078761165 -0.9112852035972877 -1.114720877347661
H 1.5978303145117931 -1.1163717497304302 0.3084047026403918
H -1.294480678706466 -0.17688165063129338 2.007215680150384
H -0.3440442309564546 -1.5647582602648946 1.4768409929461792
H -2.665906454192042 -1.7698500289327237 0.6410210875963452
H -1.5727998061872177 -1.52307287938773 -0.7353767419060595
H -2.1030575560307847 0.8730366601301677 -0.511206266406258
H -4.248668041570748 0.7611821446608847 -1.5718556628955052
H -4.403198232453267 -0.9163745348221125 -1.0427223050292183
H -3.149251488581963 -0.46122525233904416 -2.2264649563037815


--Link1--
%nprocshared=4
%mem=8GB
%Oldchk=VXPJBVRYAHYMNY-UHFFFAOYSA-N_conf_1_0.chk
%Chk=VXPJBVRYAHYMNY-UHFFFAOYSA-N_conf_1_1.chk
# freq B3LYP/6-31G** SCRF=(Solvent=water) volume NMR pop=NPA density=current Geom=AllCheck Guess=Read


--Link1--
%nprocshared=4
%mem=8GB
%Oldchk=VXPJBVRYAHYMNY-UHFFFAOYSA-N_conf_1_1.chk
%Chk=VXPJBVRYAHYMNY-UHFFFAOYSA-N_conf_1_2.chk
# TD(NStates=10, Root=1) B3LYP/6-31G** SCRF=(Solvent=water) volume pop=NPA density=current Geom=AllCheck Guess=Read



