%nprocshared=4
%mem=8GB
%Chk=VXPJBVRYAHYMNY-UHFFFAOYSA-N_conf_0_0.chk
# opt=CalcFc B3LYP/6-31G** SCRF=(Solvent=water) scf=xqc 

VXPJBVRYAHYMNY-UHFFFAOYSA-N_conf_0

0 1
C -4.224487258706161 -1.1068731152156719 0.4276193904083261
N -3.1534292679566143 -0.28109164845769397 -0.11623014166533226
C -1.868768186705736 -0.9861028106902647 -0.05224805554421875
C -0.7284919734267413 -0.12112822151393522 -0.6108169004486741
O 0.5052872388157452 -0.8430815556224183 -0.6137077230305322
C 1.228444023075917 -0.7599716261587441 0.6216555222793324
C 2.117359389936631 0.49474542019747497 0.6624972140349887
N 3.1254129482215913 0.444507117805359 -0.40450633891114085
C 3.827822444091757 1.7114050173687234 -0.5316516985212257
H -4.045003373100192 -1.3445689045186326 1.481116705029452
H -5.170603677841785 -0.5598020671596401 0.3703354297300099
H -4.339251762461677 -2.0384273080536186 -0.1361110554313733
H -3.367498654708859 -0.06137714453316708 -1.0895793235093065
H -1.6417561070546784 -1.2586552202168737 0.9848007262416311
H -1.9136043104341784 -1.9237812849722462 -0.6203806758550658
H -0.945094332625403 0.13216300292726887 -1.6548000671809189
H -0.6347172576172301 0.8214986470305766 -0.059857137212912026
H 0.5447893047486876 -0.7742174695244721 1.477400628296325
H 1.8538138604277412 -1.657197031494402 0.6909620829844204
H 2.614961260868552 0.5515600348729457 1.6367796479694527
H 1.4923132017377934 1.386098940395842 0.5400686107500736
H 2.6475299444702873 0.21825469763247146 -1.2804380540555598
H 4.581880557960126 1.6330520161119257 -1.3208595396505247
H 4.347482227265106 1.9700774426941505 0.3965509617721229
H 3.145609761019635 2.5250630414517925 -0.7986002084793113


--Link1--
%nprocshared=4
%mem=8GB
%Oldchk=VXPJBVRYAHYMNY-UHFFFAOYSA-N_conf_0_0.chk
%Chk=VXPJBVRYAHYMNY-UHFFFAOYSA-N_conf_0_1.chk
# freq B3LYP/6-31G** SCRF=(Solvent=water) volume NMR pop=NPA density=current Geom=AllCheck Guess=Read


--Link1--
%nprocshared=4
%mem=8GB
%Oldchk=VXPJBVRYAHYMNY-UHFFFAOYSA-N_conf_0_1.chk
%Chk=VXPJBVRYAHYMNY-UHFFFAOYSA-N_conf_0_2.chk
# TD(NStates=10, Root=1) B3LYP/6-31G** SCRF=(Solvent=water) volume pop=NPA density=current Geom=AllCheck Guess=Read



