%nprocshared=4
%mem=8GB
%Chk=QLBRROYTTDFLDX-OCAPTIKFSA-N_conf_2_0.chk
# opt=CalcFc B3LYP/6-31G** SCRF=(Solvent=water) scf=xqc 

QLBRROYTTDFLDX-OCAPTIKFSA-N_conf_2

0 1
N 2.9663598638241604 1.4235198059173428 1.0572690355568992
C 2.5841919409939362 0.5171641037173196 -0.019771110815794007
C 1.2924243590376991 -0.2602334050140066 0.29216782269682273
C 0.050467817218379236 0.6390120816163956 0.38625568512487113
C -1.203828574233337 -0.14781317474503222 0.8320421184282772
C -2.5037998628295948 0.516123761080419 0.33483887769796367
N -2.6621429190608716 1.8763094318863383 0.8404224828989486
C -1.148613822421757 -1.6268744459020872 0.398600442176963
C -0.3786291451087739 -1.813825438533051 -0.9007396734472849
C 1.0741108568598998 -1.3504996930590034 -0.7771363329209213
H 3.82906933694506 1.9037977109250774 0.8046525296403835
H 2.2623796981255953 2.1504413585341187 1.1716969408463487
H 2.468710690628594 1.089406659197546 -0.9476061675745406
H 3.406326421670863 -0.1909357526713916 -0.17480662557264562
H 1.4243419905873704 -0.7605169599901317 1.2623295365288851
H -0.12178364971854012 1.1077763810822847 -0.5918623389371959
H 0.21412541727386644 1.4562825456384074 1.0975975441337458
H -1.2327180652530432 -0.14411214601849412 1.931089858335989
H -3.3661144948529995 -0.07144993857546866 0.6697289859000852
H -2.5288455894973696 0.5327524589038124 -0.760798576900259
H -1.920709575831901 2.4714432752181956 0.47535463661214433
H -3.536360413855002 2.2659126058654673 0.4899464059638154
H -2.157236396344039 -2.0447652623694164 0.3005861632692898
H -0.6541931516217825 -2.2111576589062527 1.1859140489934996
H -0.8738575972698651 -1.2477513268897096 -1.6995063790872225
H -0.40191256107315065 -2.8659177542816834 -1.2069755789342846
H 1.7091945900453664 -2.21043119692167 -0.5282343191503412
H 1.4090428357612899 -1.0036580257053085 -1.7629257275198975


--Link1--
%nprocshared=4
%mem=8GB
%Oldchk=QLBRROYTTDFLDX-OCAPTIKFSA-N_conf_2_0.chk
%Chk=QLBRROYTTDFLDX-OCAPTIKFSA-N_conf_2_1.chk
# freq B3LYP/6-31G** SCRF=(Solvent=water) volume NMR pop=NPA density=current Geom=AllCheck Guess=Read


--Link1--
%nprocshared=4
%mem=8GB
%Oldchk=QLBRROYTTDFLDX-OCAPTIKFSA-N_conf_2_1.chk
%Chk=QLBRROYTTDFLDX-OCAPTIKFSA-N_conf_2_2.chk
# TD(NStates=10, Root=1) B3LYP/6-31G** SCRF=(Solvent=water) volume pop=NPA density=current Geom=AllCheck Guess=Read



