%nprocshared=4
%mem=8GB
%Chk=QLBRROYTTDFLDX-OCAPTIKFSA-N_conf_1_0.chk
# opt=CalcFc B3LYP/6-31G** SCRF=(Solvent=water) scf=xqc 

QLBRROYTTDFLDX-OCAPTIKFSA-N_conf_1

0 1
N -2.8543118345343323 1.890648341187045 -0.5396005700639149
C -2.4565126444079897 0.6280687408059794 0.0756069281105834
C -1.3589026102893416 -0.10138134287197403 -0.7239953106505237
C -0.006111348629802423 0.6473654686937886 -0.7376844349493652
C 0.9708954478330956 0.11698253902915937 0.32258792172554884
C 2.244359651703595 0.9796047148289424 0.3641631889035389
N 3.1528537461345616 0.5536754319602419 1.4234985247925798
C 1.2909087287752596 -1.3697847770059346 0.06603416890016665
C 0.13004380378309346 -2.146878504569156 -0.5581073325562361
C -1.2158854321183434 -1.5410908605530347 -0.1891170394287176
H -2.0859402746057283 2.5573862005851127 -0.5067503721625585
H -3.60903744099102 2.3061636478312444 0.005408230197659911
H -2.120078427352609 0.815393055549296 1.101815773275095
H -3.34614141334825 -0.00944359566676661 0.13651869135207398
H -1.6988225951430882 -0.16820371925836214 -1.7674988276642156
H 0.4509971360884406 0.5203144950849324 -1.728892515699905
H -0.1469140476716515 1.725693602068231 -0.6123593451168453
H 0.47620332278000005 0.19829847691589617 1.3010728998689594
H 1.9767274602992406 2.029087286690918 0.532294905896294
H 2.768279740529023 0.9275531496584991 -0.5969743054023374
H 2.6902991478023552 0.6370440479570526 2.3276095789529165
H 3.9559202417796535 1.1804967654534382 1.4529716953408918
H 2.1660850710069273 -1.4752527065301406 -0.5872663728945834
H 1.564350889066936 -1.8385041431558127 1.0199996822487478
H 0.2378269897585166 -2.1486739196204563 -1.6501252171773246
H 0.1761414913676034 -3.1944034922962263 -0.23933137048035402
H -1.328067518599688 -1.5598787674403636 0.9027733984594037
H -2.025167281016401 -2.160280135331783 -0.5946525737776501


--Link1--
%nprocshared=4
%mem=8GB
%Oldchk=QLBRROYTTDFLDX-OCAPTIKFSA-N_conf_1_0.chk
%Chk=QLBRROYTTDFLDX-OCAPTIKFSA-N_conf_1_1.chk
# freq B3LYP/6-31G** SCRF=(Solvent=water) volume NMR pop=NPA density=current Geom=AllCheck Guess=Read


--Link1--
%nprocshared=4
%mem=8GB
%Oldchk=QLBRROYTTDFLDX-OCAPTIKFSA-N_conf_1_1.chk
%Chk=QLBRROYTTDFLDX-OCAPTIKFSA-N_conf_1_2.chk
# TD(NStates=10, Root=1) B3LYP/6-31G** SCRF=(Solvent=water) volume pop=NPA density=current Geom=AllCheck Guess=Read



