%nprocshared=9
%mem=18GB
%Chk=KMKWGXGSGPYISJ-UHFFFAOYSA-N_conf_2_0.chk
# opt=CalcFc B3LYP/6-31G** SCRF=(Solvent=water) scf=xqc 

KMKWGXGSGPYISJ-UHFFFAOYSA-N_conf_2

0 1
C 0.1972301290164801 0.6223289000157186 2.990749909363232
C -0.014480860715301443 -0.6917352904614608 2.1951214094668035
C -1.1737774834180892 -0.6181360641860596 1.1710522556904246
C -1.994110194277031 0.5139008739585965 1.025125455859106
C -3.0167014353345265 0.5490970777871167 0.06931497300990311
C -3.252823412290217 -0.5563017196229894 -0.7477654571226432
O -4.202918685324842 -0.5910064750125401 -1.7435336979811449
C -5.374651292756544 0.09609143389167105 -1.5382083723455002
C -5.7706526557412605 1.0010559499954912 -2.519184212873095
C -6.971061038187109 1.7006930576295827 -2.3735185701720423
C -7.768621235474746 1.5214435975154568 -1.2389721654993102
N -9.021000583299688 2.140087386895707 -1.1560929503001551
C -7.400303130400013 0.5481425453865266 -0.3055087482667326
C -6.200869689597495 -0.1563819416947787 -0.4435837818687395
C -2.4465802605635485 -1.6846322001264133 -0.6270524357390869
C -1.4233993689712259 -1.7179111616457408 0.3248714693090654
C 1.3297634716166986 -0.9894090136939918 1.4861840658996033
C 2.201555443553981 -2.010913593322396 1.8994719560253355
C 3.41184337648693 -2.238813092693616 1.2345477606083908
C 3.7829174625072843 -1.44258718744654 0.1534710547869461
O 4.9716559549934525 -1.7595866109074598 -0.46502576599900636
C 5.7307423925519965 -0.7241218920804691 -0.9537957875878125
C 6.163364501072239 -0.8109372079745387 -2.274527041730378
C 6.965457534420791 0.20050578099465655 -2.8102179759239343
C 7.317612925562676 1.3146623153687855 -2.0422571069572815
N 8.213718186106258 2.2636483331977213 -2.548305854467298
C 6.945761666898589 1.3464762673752795 -0.6947736383990868
C 6.143519385231258 0.33892975914345963 -0.1507880650043188
C 2.927748893532507 -0.43476922906579357 -0.28653300680554195
C 1.7220525803773397 -0.20415571057995735 0.38169657939663876
C -0.4172763734378194 -1.7632769819947678 3.2420500535953507
H 0.4186381454603288 1.473342116640669 2.336177934677188
H -0.6872577278149761 0.8820835636970121 3.585148579296321
H 1.0389139025029346 0.5298311334991043 3.6889796738481473
H -1.8533886866725218 1.3992337141193143 1.6387888753430868
H -3.6107871114814194 1.453211831878153 -0.031742449879753935
H -5.1523832966926575 1.1553504114821476 -3.398659527621515
H -7.279984989527543 2.385962430888417 -3.1575630033207003
H -9.07553114441836 3.0220579672255288 -1.6558821859256527
H -9.38263756934718 2.2097042417557438 -0.21036343391051365
H -8.048254290088513 0.3258888907903351 0.5381452878898249
H -5.926435845445221 -0.9063959431547028 0.2922461312322312
H -2.607878384037851 -2.540160691792536 -1.277474670158085
H -0.8038929488878455 -2.611270235466048 0.3877417708148342
H 1.9639681662200255 -2.6533671059618475 2.742393097933323
H 4.067777979365502 -3.03992385949804 1.5653982630853762
H 5.884798458577857 -1.665081334892528 -2.8841739634925774
H 7.316314415214548 0.10914020585132639 -3.8349526019021463
H 8.165443674321276 3.16176424888763 -2.0776261698935574
H 8.17968037480897 2.356522487791532 -3.558153818570564
H 7.282496949455554 2.156347601502708 -0.05379864552398662
H 5.859599308623072 0.380895656222244 0.8969007218375695
H 3.1783681295110986 0.17344562135918698 -1.1508240167542831
H 1.0760127617802704 0.5937460453251604 0.018708551434750323
H -1.3956180045660345 -1.5349539838047572 3.6831440252325813
H 0.3020306387492859 -1.8133792258594672 4.068250095338689
H -0.4857091097517071 -2.766383695131686 2.805891039698266


--Link1--
%nprocshared=9
%mem=18GB
%Oldchk=KMKWGXGSGPYISJ-UHFFFAOYSA-N_conf_2_0.chk
%Chk=KMKWGXGSGPYISJ-UHFFFAOYSA-N_conf_2_1.chk
# freq B3LYP/6-31G** SCRF=(Solvent=water) volume NMR pop=NPA density=current Geom=AllCheck Guess=Read


--Link1--
%nprocshared=9
%mem=18GB
%Oldchk=KMKWGXGSGPYISJ-UHFFFAOYSA-N_conf_2_1.chk
%Chk=KMKWGXGSGPYISJ-UHFFFAOYSA-N_conf_2_2.chk
# TD(NStates=10, Root=1) B3LYP/6-31G** SCRF=(Solvent=water) volume pop=NPA density=current Geom=AllCheck Guess=Read



