%nprocshared=9
%mem=18GB
%Chk=KMKWGXGSGPYISJ-UHFFFAOYSA-N_conf_0_0.chk
# opt=CalcFc B3LYP/6-31G** SCRF=(Solvent=water) scf=xqc 

KMKWGXGSGPYISJ-UHFFFAOYSA-N_conf_0

0 1
C -0.3073950685878386 -2.398513089606894 1.69195263980385
C 0.020063846777833974 -1.947644663504272 0.2430883239995047
C 1.1575862309115408 -0.8995006785982607 0.1605313817520221
C 1.923613134739143 -0.5154413746638347 1.276622437499993
C 2.9494105704069433 0.427843719972518 1.1571780258861628
C 3.233737203600967 0.988402640237147 -0.08514900491094801
O 4.211605721024727 1.9417139707707516 -0.22327136399345401
C 5.522935374024799 1.5338289951966269 -0.0933235944929643
C 5.983453539348767 0.23583563537142324 -0.3164441158740136
C 7.347764122408338 -0.053282633654283276 -0.19893444950433337
C 8.262167763822148 0.9345264774556185 0.1687491235706447
N 9.63422093744539 0.6638824321437885 0.15604634877251697
C 7.8024809788351535 2.242574048705458 0.3203492325145169
C 6.439908935826603 2.538105011486068 0.20787018187325365
C 2.4822921486727276 0.6447143522257713 -1.2025155113851516
C 1.4597618545802085 -0.29854640462475585 -1.0815276735221429
C -1.2960205070913846 -1.3872212692503716 -0.34929147206395544
C -2.0065235038034457 -2.0320562705419176 -1.3760332224730218
C -3.194637964655174 -1.4921955917872491 -1.8802845960384464
C -3.7003675495136163 -0.3053378361961124 -1.3592540039915963
O -4.854035491181647 0.18950224413418112 -1.923916600112585
C -5.8374914119786245 0.6148381199057869 -1.0628031346730042
C -6.30552980946908 -0.17396897946144813 -0.013161317210308374
C -7.337905123819839 0.29764872432349393 0.8006717455298923
C -7.887654492227293 1.566172077878479 0.5947454590529508
N -8.995821895573723 1.9817532949822652 1.3388993426632139
C -7.46377776157744 2.3092883756992064 -0.5093912488023725
C -6.4367881128602535 1.8407787672726823 -1.3323506328563932
C -3.006235548451678 0.3660597501027694 -0.35607007304551136
C -1.8205915011398397 -0.17464641144495185 0.14726522077286922
C 0.5424213137153502 -3.2132225573908335 -0.4868250605585572
H -1.1418556399218953 -3.110710139688429 1.7033494449247677
H 0.5468932059408419 -2.8988050557098926 2.16309957242981
H -0.5939243899168355 -1.5577650154331657 2.334173586927043
H 1.7401432576085885 -0.9344060986364339 2.2616467807134724
H 3.52247004489292 0.722235729013734 2.031831309416614
H 5.304711808949679 -0.5578003670446448 -0.6077006826109159
H 7.692692384820224 -1.0603754748439995 -0.4089857982009315
H 9.870284415219283 -0.30553515618298815 0.33289562205679873
H 10.194331246753592 1.312480013619603 0.6985706964674239
H 8.502174259713014 3.047135317749801 0.521783457242612
H 6.096252548494554 3.5586338442315606 0.3407350942092882
H 2.6906023072540846 1.1038158204548694 -2.165459316884609
H 0.8862544880993477 -0.5559310280899176 -1.9706794965065588
H -1.6475989604113292 -2.9584979794068804 -1.8184480058136352
H -3.72394954820539 -2.0014992911080727 -2.6830093729735123
H -5.890562486017311 -1.1619233058483307 0.1633310279121143
H -7.71544859100451 -0.3407020048395259 1.5937086669353913
H -9.126372807434212 2.987800450949729 1.3647263518790362
H -9.059426418033599 1.556729404118553 2.2584808635433404
H -7.937583865505316 3.25709396718264 -0.7470756367061808
H -6.113653752591517 2.4274960977498528 -2.1852659128110856
H -3.3719553404462084 1.3121737755968863 0.03410548562733471
H -1.2959508229234453 0.3694095984711499 0.9312080967763023
H -0.1606118634570886 -4.050422247962957 -0.3966465318176712
H 0.7115177889668607 -3.038487374882427 -1.5555916751426644
H 1.4979187949472987 -3.5480343566005215 -0.06245631836583409


--Link1--
%nprocshared=9
%mem=18GB
%Oldchk=KMKWGXGSGPYISJ-UHFFFAOYSA-N_conf_0_0.chk
%Chk=KMKWGXGSGPYISJ-UHFFFAOYSA-N_conf_0_1.chk
# freq B3LYP/6-31G** SCRF=(Solvent=water) volume NMR pop=NPA density=current Geom=AllCheck Guess=Read


--Link1--
%nprocshared=9
%mem=18GB
%Oldchk=KMKWGXGSGPYISJ-UHFFFAOYSA-N_conf_0_1.chk
%Chk=KMKWGXGSGPYISJ-UHFFFAOYSA-N_conf_0_2.chk
# TD(NStates=10, Root=1) B3LYP/6-31G** SCRF=(Solvent=water) volume pop=NPA density=current Geom=AllCheck Guess=Read



