%nprocshared=9
%mem=18GB
%Chk=KMKWGXGSGPYISJ-UHFFFAOYSA-N_conf_1_0.chk
# opt=CalcFc B3LYP/6-31G** SCRF=(Solvent=water) scf=xqc 

KMKWGXGSGPYISJ-UHFFFAOYSA-N_conf_1

0 1
C -0.45106194411136863 2.2808016479811766 -2.618780797378841
C 0.07964258126593969 1.996395892692741 -1.1887321096152954
C 1.2417765001666576 0.973870997560186 -1.1483541259051802
C 1.8606539306889376 0.4761484127409913 -2.308178760313176
C 2.9178093379568812 -0.4366058034061213 -2.2263918759711427
C 3.387495498967155 -0.8555435104285248 -0.9847347753586276
O 4.40923184354509 -1.7768360438583006 -0.9797804959461718
C 5.452571082859483 -1.5609435023738072 -0.10907670114530796
C 5.905793041856494 -2.6574474900183245 0.6211216139735979
C 6.982202220493455 -2.511882845428486 1.5005740977320947
C 7.650178329845228 -1.289308732477008 1.614443189687984
N 8.64626974005059 -1.1183050701687687 2.5823418323623035
C 7.163682915992186 -0.18835429853467778 0.9033597387936959
C 6.088143961770009 -0.32567617405838406 0.020858737458471107
C 2.777621879353534 -0.3961574129611294 0.18022514389505265
C 1.7230622573884966 0.5168242596815142 0.09707713953865477
C -1.1330746923491573 1.4935223070582588 -0.3674330160013106
C -1.6838886270078208 0.22438851174257746 -0.646583823911157
C -2.78372297864496 -0.2647350417782739 0.06326840575241173
C -3.3671020222864523 0.5171050904673947 1.0573597814452855
O -4.428778643151968 0.08382665024918898 1.8169789630438413
C -5.510409579758159 -0.4448333996344363 1.1500783856167587
C -6.078015313914593 0.1545403458002674 0.025138635817908758
C -7.198200853726609 -0.42442724244307256 -0.5789543067847582
C -7.794347277764787 -1.565805458845761 -0.034683411214042295
N -8.838567795108293 -2.20614223754424 -0.7115149974139413
C -7.194583518523433 -2.1751389102274343 1.0710911219699697
C -6.074553290959063 -1.6030289563577023 1.6806787225176967
C -2.8293576351228427 1.7628662170886586 1.36777349659723
C -1.728313427138689 2.251199474331417 0.6561798444194991
C 0.6651661376879198 3.33915011861129 -0.6773718273724362
H -0.8031156118992296 1.3714382677336558 -3.120150843755169
H -1.294931771116848 2.981991692794101 -2.5943591692336994
H 0.3203780141208051 2.7305759563234173 -3.2551713785212746
H 1.538403135386184 0.7819049481137296 -3.2994749614596564
H 3.3783902222752507 -0.8151515703202764 -3.135004163259722
H 5.4109841189023085 -3.61949452536635 0.5220717166141476
H 7.297137062112791 -3.3658879591729063 2.093886617476305
H 9.272814911073958 -0.3421204834106201 2.393899016365777
H 9.146561537989339 -1.9713564764156875 2.811435626454562
H 7.6228662998714976 0.7887238976700617 1.0258271196830404
H 5.750249876067153 0.5350368881523957 -0.5487765198353607
H 3.1086956905032403 -0.7438388275446619 1.1548092066689752
H 1.266002667135669 0.8634794708350985 1.0227000746153125
H -1.2459503782785635 -0.4058125642830812 -1.4192759944591744
H -3.170256011964119 -1.2546802170406628 -0.1623599225928307
H -5.654702140495745 1.0627014053822572 -0.3937553449205812
H -7.605426142250218 0.03002031263998097 -1.478067622398441
H -9.403430965445008 -2.806866554935323 -0.11935092826060334
H -9.403507045503181 -1.582597056025194 -1.279242034472466
H -7.597244662708177 -3.101462912235338 1.4717349970946798
H -5.633154865382328 -2.071553587251042 2.555642088214641
H -3.2697154558176087 2.3598816875708435 2.1616894968174307
H -1.3521293421114988 3.233367829652931 0.9277386038672689
H 1.5382948574805162 3.6399144993916583 -1.2700679661440395
H 0.9917157631627431 3.279252670778884 0.36761119362166983
H -0.06625342342950917 4.153065411500479 -0.7487839700522197


--Link1--
%nprocshared=9
%mem=18GB
%Oldchk=KMKWGXGSGPYISJ-UHFFFAOYSA-N_conf_1_0.chk
%Chk=KMKWGXGSGPYISJ-UHFFFAOYSA-N_conf_1_1.chk
# freq B3LYP/6-31G** SCRF=(Solvent=water) volume NMR pop=NPA density=current Geom=AllCheck Guess=Read


--Link1--
%nprocshared=9
%mem=18GB
%Oldchk=KMKWGXGSGPYISJ-UHFFFAOYSA-N_conf_1_1.chk
%Chk=KMKWGXGSGPYISJ-UHFFFAOYSA-N_conf_1_2.chk
# TD(NStates=10, Root=1) B3LYP/6-31G** SCRF=(Solvent=water) volume pop=NPA density=current Geom=AllCheck Guess=Read



