%nprocshared=9
%mem=18GB
%Chk=KMKWGXGSGPYISJ-UHFFFAOYSA-N_conf_4_0.chk
# opt=CalcFc B3LYP/6-31G** SCRF=(Solvent=water) scf=xqc 

KMKWGXGSGPYISJ-UHFFFAOYSA-N_conf_4

0 1
C 0.10214592277593564 1.1161208699802567 -2.6158822524673764
C -0.07867879002231253 -0.2810820358739151 -1.965081148910447
C 1.283793279793243 -0.6456316251120616 -1.3263564974984965
C 2.115110983082725 -1.6613328109387246 -1.829880472159369
C 3.3428898183673095 -1.9531984543774163 -1.2269369206224703
C 3.770195442244121 -1.222276760783199 -0.12246635196573409
O 4.970618988568609 -1.5756868713837378 0.4460156286620742
C 5.8886830940798935 -0.5729839470055136 0.6632636999580912
C 6.645447540016071 -0.660377018739183 1.8300981833660788
C 7.626324911254687 0.2977920181372197 2.1006043223839823
C 7.8393301107130595 1.366814516361923 1.226219919997747
N 8.900189458651052 2.2538962106042786 1.441043886668753
C 7.12906129116082 1.4002067289164262 0.022828320035106542
C 6.147614744523029 0.44418597742557553 -0.256299350197002
C 2.958053984789052 -0.2256568360240624 0.4117980108308232
C 1.7315516320522855 0.0639056655412516 -0.19100017408509906
C -1.213340070474289 -0.3359908359223293 -0.9129567375821804
C -1.4249717282886605 -1.5228987383798294 -0.17970934569360406
C -2.442057368700197 -1.6180975861826732 0.7731738898448292
C -3.2806930881211014 -0.5331363299512163 1.0006370429113287
O -4.2465264706279084 -0.6757095566148206 1.9708875847971121
C -5.516660917726342 -0.24877672748653878 1.6582398660167441
C -6.1626886578550035 -0.6076134585541868 0.47523160124186076
C -7.464888581779153 -0.16060848487543772 0.23326423133284405
C -8.150777237005752 0.5943131359876337 1.1890188204953942
N -9.404246550604567 1.1400298978306014 0.8889357216210819
C -7.479212425954648 0.9739081720009598 2.3544013291036285
C -6.177527598960812 0.5305629792345065 2.604628818542268
C -3.0798803452994905 0.6592909454855701 0.3070821818868806
C -2.0596351055521835 0.7530474494851424 -0.6464003250859569
C -0.5016819568304588 -1.231310584170709 -3.1175898476664092
H 0.3272976425773906 1.8946602221712219 -1.8774156235646078
H 0.9280097541210774 1.1106682984430893 -3.3381532196852266
H -0.7976688269721997 1.42744999569262 -3.1594292334672582
H 1.8308071586307897 -2.2502609387974872 -2.6970759897479346
H 3.9682524790096116 -2.7472266901681377 -1.625434639643192
H 6.481484437351918 -1.4794190235960412 2.5249015118528653
H 8.22509069537006 0.19858899667681612 3.0012309248632603
H 9.154005880989606 2.3650366540567114 2.417770631002307
H 8.788981434260007 3.1452726004661775 0.9685790383061037
H 7.339430239612966 2.1692568881662577 -0.7151776800722417
H 5.611462836378112 0.49179470738719 -1.1994068181980277
H 3.2668213675769864 0.32431901153075493 1.295989235802957
H 1.114192617982989 0.8478665641722248 0.2445365108447441
H -0.785616234137061 -2.388666250858884 -0.34130774468497804
H -2.5795064800130376 -2.539702975615047 1.3311369152090453
H -5.661030444090344 -1.2236896594948836 -0.2653011874319697
H -7.941661414469876 -0.4143656427971379 -0.7093645010263773
H -9.95040518134846 1.3855092383887118 1.7079132346716084
H -9.937720776859832 0.5945213115709548 0.22105231032845443
H -7.966612061283824 1.617562433489294 3.0819633323746367
H -5.675600965041916 0.81052564176276 3.5261523982368366
H -3.7101954749814348 1.5233487014594629 0.5010273485587774
H -1.9480291676961925 1.6989282800822083 -1.1678105182828238
H 0.20487435732931994 -1.1909642092595543 -3.95561304321974
H -1.4869378097536807 -0.95599002208172 -3.5140314387427525
H -0.5672703728147872 -2.276730037463719 -2.79349767039167


--Link1--
%nprocshared=9
%mem=18GB
%Oldchk=KMKWGXGSGPYISJ-UHFFFAOYSA-N_conf_4_0.chk
%Chk=KMKWGXGSGPYISJ-UHFFFAOYSA-N_conf_4_1.chk
# freq B3LYP/6-31G** SCRF=(Solvent=water) volume NMR pop=NPA density=current Geom=AllCheck Guess=Read


--Link1--
%nprocshared=9
%mem=18GB
%Oldchk=KMKWGXGSGPYISJ-UHFFFAOYSA-N_conf_4_1.chk
%Chk=KMKWGXGSGPYISJ-UHFFFAOYSA-N_conf_4_2.chk
# TD(NStates=10, Root=1) B3LYP/6-31G** SCRF=(Solvent=water) volume pop=NPA density=current Geom=AllCheck Guess=Read



