%nprocshared=9
%mem=18GB
%Chk=KMKWGXGSGPYISJ-UHFFFAOYSA-N_conf_3_0.chk
# opt=CalcFc B3LYP/6-31G** SCRF=(Solvent=water) scf=xqc 

KMKWGXGSGPYISJ-UHFFFAOYSA-N_conf_3

0 1
C -0.31982277635618644 -2.0084490359821436 2.7001503203816575
C -0.054744713052847976 -2.47534698632701 1.2441617371847966
C 1.3074176664241508 -2.004581385215132 0.6778512864338863
C 2.2720371531646046 -1.3458822073484942 1.4598920165166325
C 3.4956214014402818 -0.9447465826555048 0.9116141723681699
C 3.771295132534737 -1.1852897339069717 -0.4338219428806799
O 4.96888393874248 -0.847947682937576 -1.0215668230013129
C 5.446345691607125 0.4215309399700621 -0.7908663628052004
C 4.663165970328555 1.5625984582250696 -0.9660267891607303
C 5.220463933170737 2.8257368036514388 -0.7470922303793057
C 6.5707038647368945 2.96271526326425 -0.41106215478355734
N 7.089525598282111 4.219976850347451 -0.07864804112698864
C 7.333217354458417 1.8092400046547845 -0.20369789814635317
C 6.784055866006459 0.5428041593139341 -0.4216800594229764
C 2.8442794204309676 -1.8580818808995956 -1.2227791811445878
C 1.6227588878884105 -2.2566462134377416 -0.6744080774800535
C -1.2263622738565652 -1.9294647571546863 0.3910385807832155
C -2.209500489170862 -2.7601178338245593 -0.17601381827877302
C -3.2556906718337952 -2.224712374714036 -0.934758220795256
C -3.348663518251857 -0.8486325107259444 -1.1236034348012103
O -4.381033035529421 -0.3831186478923706 -1.9027688063538384
C -5.168916474271124 0.6161266270733157 -1.375937403039615
C -5.611517228933147 0.6268481244392958 -0.05284841377969057
C -6.448428865215364 1.654975578675232 0.3927439680671017
C -6.826688951249156 2.6918294141431787 -0.46429386821153906
N -7.761006042757658 3.6462195455904203 -0.04583621178257486
C -6.4398714640197605 2.627271199000999 -1.8057724914342146
C -5.603324839992106 1.6026505620233245 -2.2587160086950844
C -2.377747370132456 -0.0033891778168710575 -0.5921271923558855
C -1.3324097708878777 -0.539753809076379 0.16405155098081367
C 0.006865887088753397 -4.0249123776202955 1.3006018600894063
H -1.307928404446534 -2.3374120728770604 3.045847246505889
H 0.4180156585190312 -2.4217329967396277 3.39851929080415
H -0.29137962473281376 -0.916892631622766 2.7993733304353676
H 2.101921542193302 -1.1331707319864905 2.5114084875175413
H 4.227091071001994 -0.4499005161802325 1.5448949918684218
H 3.6218881628514694 1.4793418175726023 -1.263382223650071
H 4.5895325318017015 3.70426309898305 -0.8492977870699574
H 6.623213579740757 4.989367681764854 -0.5484675774111931
H 8.100047360299563 4.278507121175687 -0.15915345517099724
H 8.366512172311923 1.8868875502413598 0.12273377964271276
H 7.3941889187623655 -0.345932007462244 -0.2867558204801283
H 3.065489641878213 -2.067037638335033 -2.2657121951154524
H 0.9090397127717539 -2.768124949390265 -1.3183533562957606
H -2.1857546397766505 -3.8383758898499543 -0.046618473192768906
H -4.001869689057641 -2.8834447514302486 -1.3718521326659834
H -5.332251727869961 -0.16634777494346134 0.6340585064606602
H -6.810020271577235 1.6325336298754973 1.41791522240588
H -7.74294442244403 4.504670593185616 -0.5873910714110648
H -7.752956646221932 3.818926970069931 0.9546623925286857
H -6.791470129553107 3.3728329199661715 -2.51352617736167
H -5.302174708613733 1.569397999143344 -3.302155396628179
H -2.4233131354048214 1.0683360224948535 -0.7640857113879639
H -0.5855431651936494 0.14066172242026592 0.5705923212823182
H 0.09834102839275628 -4.474208452658278 0.30474594129265775
H -0.8884763065202207 -4.448022341476813 1.772106257466079
H 0.8698922100914008 -4.364574704779787 1.8863771320658256


--Link1--
%nprocshared=9
%mem=18GB
%Oldchk=KMKWGXGSGPYISJ-UHFFFAOYSA-N_conf_3_0.chk
%Chk=KMKWGXGSGPYISJ-UHFFFAOYSA-N_conf_3_1.chk
# freq B3LYP/6-31G** SCRF=(Solvent=water) volume NMR pop=NPA density=current Geom=AllCheck Guess=Read


--Link1--
%nprocshared=9
%mem=18GB
%Oldchk=KMKWGXGSGPYISJ-UHFFFAOYSA-N_conf_3_1.chk
%Chk=KMKWGXGSGPYISJ-UHFFFAOYSA-N_conf_3_2.chk
# TD(NStates=10, Root=1) B3LYP/6-31G** SCRF=(Solvent=water) volume pop=NPA density=current Geom=AllCheck Guess=Read



