%nprocshared=4
%mem=8GB
%Chk=QOHMWDJIBGVPIF-UHFFFAOYSA-N_conf_3_0.chk
# opt=CalcFc B3LYP/6-31G** SCRF=(Solvent=water) scf=xqc 

QOHMWDJIBGVPIF-UHFFFAOYSA-N_conf_3

0 1
C -1.823641534584207 -1.242446454621085 -1.5720993777700467
C -1.9483791762459055 -0.4962485452231495 -0.2465252033635048
N -0.7636287757572879 0.34051792570684236 0.027073039790318998
C 0.3559150441840424 -0.49035745599966285 0.5290810331067888
C 1.712458075938235 0.16873833284415146 0.2374408185862425
C 2.891236502965144 -0.6270131277141892 0.8023758246433316
N 3.017247673195608 -1.9465963440403278 0.19433136819858202
C -1.090045796847813 1.4032116888310522 0.998266415812029
C -1.8324368926892936 2.564811930802329 0.3442064663283724
H -2.7548126928526115 -1.777857312709968 -1.785758626985979
H -1.0166545861939624 -1.9802662766619148 -1.562200543069099
H -1.6423863260558917 -0.5460537212241019 -2.3978500512311123
H -2.848345636490695 0.12275884183491025 -0.32944738641309335
H -2.133367668517508 -1.2023373901215468 0.5729379107799224
H 0.35600759084782796 -1.4681437853151638 0.035955790803211624
H 0.24113821020655019 -0.6896891990231927 1.6026878091528862
H 1.7536931574626358 1.1742722791143407 0.6708206207016144
H 1.835578841136966 0.29192010298052595 -0.8465428863428318
H 2.7798558051837223 -0.7401240270944348 1.8861952613347774
H 3.816591323002241 -0.06714372209088594 0.6265996561276618
H 3.868077183015788 -2.3950871781159666 0.5322499005338168
H 3.1300673846078704 -1.847374750239385 -0.814618543917076
H -1.6713073163354863 1.0060924814059868 1.8401873480193536
H -0.17576367827495976 1.8270200170867055 1.428659359187666
H -2.82321091264366 2.2757700417582782 -0.017078256441781448
H -1.9712755997983542 3.3727442730621813 1.070409165060048
H -1.2626101984579985 2.96888137476776 -0.4993814166082501


--Link1--
%nprocshared=4
%mem=8GB
%Oldchk=QOHMWDJIBGVPIF-UHFFFAOYSA-N_conf_3_0.chk
%Chk=QOHMWDJIBGVPIF-UHFFFAOYSA-N_conf_3_1.chk
# freq B3LYP/6-31G** SCRF=(Solvent=water) volume NMR pop=NPA density=current Geom=AllCheck Guess=Read


--Link1--
%nprocshared=4
%mem=8GB
%Oldchk=QOHMWDJIBGVPIF-UHFFFAOYSA-N_conf_3_1.chk
%Chk=QOHMWDJIBGVPIF-UHFFFAOYSA-N_conf_3_2.chk
# TD(NStates=10, Root=1) B3LYP/6-31G** SCRF=(Solvent=water) volume pop=NPA density=current Geom=AllCheck Guess=Read



