%nprocshared=4
%mem=8GB
%Chk=QOHMWDJIBGVPIF-UHFFFAOYSA-N_conf_4_0.chk
# opt=CalcFc B3LYP/6-31G** SCRF=(Solvent=water) scf=xqc 

QOHMWDJIBGVPIF-UHFFFAOYSA-N_conf_4

0 1
C -2.7884244875551643 -1.302516202545531 0.19298444346649424
C -1.4160537652990426 -0.7203871781094139 0.5214497972435385
N -0.638069743013848 -0.32220982705087914 -0.6638028454113545
C 0.7197558997456873 0.1326248392718573 -0.30091387439271633
C 1.6275590188494657 -1.0129469392853812 0.16983712144578295
C 3.096693956347988 -0.600987167700085 0.29724177106330074
N 3.315707506381551 0.39238083289233605 1.3434239691355545
C -1.3178195758707005 0.6621576873049766 -1.5237226907422587
C -1.6608568909168984 2.0032921064682654 -0.8809212929747975
H -2.70897631664501 -2.11295299945307 -0.539106646871965
H -3.243607366810209 -1.7150000584146259 1.099748346686061
H -3.4723656673659837 -0.543148366359729 -0.19755252182838723
H -0.8777127027156781 -1.5062284044369287 1.062019979697002
H -1.5328339882972828 0.11579218938409289 1.2211333015450527
H 1.194891215370293 0.5778895181874023 -1.1847822794118732
H 0.671824543300983 0.9168994275846882 0.4642036569564931
H 1.5682838652262254 -1.839206519880427 -0.5501783365790718
H 1.286149767482256 -1.4069732473614458 1.1339947804367587
H 3.689273634544574 -1.4905954491803426 0.5379704627386872
H 3.4682414469029608 -0.2148787369226896 -0.658438096571415
H 4.315663407290001 0.5738252165638237 1.4285681467628686
H 2.8935535875467546 1.280491234950846 1.077451349486057
H -0.6925713602743625 0.8499899422313849 -2.406488931482564
H -2.233046272030111 0.2200804905934152 -1.9343239338482916
H -2.359978874972017 1.8882405375592644 -0.04751390213204034
H -2.137987452342741 2.6549491125846045 -1.6206977963802858
H -0.7672933848794214 2.5194179611231817 -0.5174717995358511


--Link1--
%nprocshared=4
%mem=8GB
%Oldchk=QOHMWDJIBGVPIF-UHFFFAOYSA-N_conf_4_0.chk
%Chk=QOHMWDJIBGVPIF-UHFFFAOYSA-N_conf_4_1.chk
# freq B3LYP/6-31G** SCRF=(Solvent=water) volume NMR pop=NPA density=current Geom=AllCheck Guess=Read


--Link1--
%nprocshared=4
%mem=8GB
%Oldchk=QOHMWDJIBGVPIF-UHFFFAOYSA-N_conf_4_1.chk
%Chk=QOHMWDJIBGVPIF-UHFFFAOYSA-N_conf_4_2.chk
# TD(NStates=10, Root=1) B3LYP/6-31G** SCRF=(Solvent=water) volume pop=NPA density=current Geom=AllCheck Guess=Read



