%nprocshared=4
%mem=8GB
%Chk=QOHMWDJIBGVPIF-UHFFFAOYSA-N_conf_1_0.chk
# opt=CalcFc B3LYP/6-31G** SCRF=(Solvent=water) scf=xqc 

QOHMWDJIBGVPIF-UHFFFAOYSA-N_conf_1

0 1
C -2.2430352896738945 1.734419582146466 -0.2716794072602422
C -1.2889352236351903 1.1289688474250053 0.7544629286277029
N -0.5587744325106978 -0.036158334661666736 0.21770294506809287
C 0.6603015198556038 -0.30178332614465075 1.0076498735179182
C 1.8032091151253693 0.6985299228986449 0.7637184883876139
C 2.2076273075235213 0.88647124466735 -0.7017593344349444
N 2.6831221777416996 -0.33916154378853125 -1.3378485132081284
C -1.4296862295969208 -1.227931865177647 0.18235603104600462
C -0.9150167699506628 -2.2885831241826406 -0.7871490853119394
H -3.072650482266563 1.0657194742129925 -0.5165584784240039
H -1.7152621321622157 1.983714709214802 -1.198473378893219
H -2.675533181477796 2.659315160506254 0.12461885820396704
H -1.832029194502579 0.8680496638170166 1.6715366091256458
H -0.591712131170176 1.9291304915968106 1.023917387527097
H 0.4230139751873079 -0.3243259576013367 2.079753674594839
H 1.0596277179447666 -1.2945919859715145 0.7738075887328061
H 1.5426980702461692 1.6781729474361948 1.1802130602716214
H 2.6784469243989673 0.3607862066771995 1.3344918900755767
H 1.3751948976112018 1.2958693160503993 -1.2839869314460897
H 3.013836699455232 1.627072295774618 -0.7485239705223924
H 3.355054133310803 -0.8063555518209253 -0.7326440438664562
H 1.8925452176638164 -0.9770740187108357 -1.4377671249165793
H -1.5533753151754948 -1.6575741975243863 1.1844895704163771
H -2.4334664964227626 -0.9624884596264248 -0.16576671625106065
H -0.7675801966172435 -1.8674296193756776 -1.787388552053566
H -1.6458214848074089 -3.099955751362367 -0.8713787606787181
H 0.02820080390511952 -2.732806126474978 -0.4577946083281794


--Link1--
%nprocshared=4
%mem=8GB
%Oldchk=QOHMWDJIBGVPIF-UHFFFAOYSA-N_conf_1_0.chk
%Chk=QOHMWDJIBGVPIF-UHFFFAOYSA-N_conf_1_1.chk
# freq B3LYP/6-31G** SCRF=(Solvent=water) volume NMR pop=NPA density=current Geom=AllCheck Guess=Read


--Link1--
%nprocshared=4
%mem=8GB
%Oldchk=QOHMWDJIBGVPIF-UHFFFAOYSA-N_conf_1_1.chk
%Chk=QOHMWDJIBGVPIF-UHFFFAOYSA-N_conf_1_2.chk
# TD(NStates=10, Root=1) B3LYP/6-31G** SCRF=(Solvent=water) volume pop=NPA density=current Geom=AllCheck Guess=Read



