%nprocshared=4
%mem=8GB
%Chk=QOHMWDJIBGVPIF-UHFFFAOYSA-N_conf_2_0.chk
# opt=CalcFc B3LYP/6-31G** SCRF=(Solvent=water) scf=xqc 

QOHMWDJIBGVPIF-UHFFFAOYSA-N_conf_2

0 1
C -2.311169360548345 1.8318057065576223 -0.8652217664260199
C -1.322069654624046 0.7014784643322914 -1.1350280214902226
N -0.8718587930807846 0.05136176580612432 0.11132496958708998
C 0.41233594848039923 -0.6491432795168731 -0.10021212864970698
C 1.6071087383802192 0.31656634772734105 -0.06928650850819565
C 2.920701464306775 -0.4463046232427942 -0.24636759044802345
N 4.05857451705968 0.46553536020355174 -0.201496636220078
C -1.9003703000916472 -0.8800348374566689 0.6143872577910681
C -1.7296766231439211 -1.1703648802749564 2.1029932785589995
H -2.544166402633878 2.3522330092251678 -1.8002677131961693
H -1.8876590099428832 2.566010768932671 -0.17154512092499383
H -3.2551378964973368 1.4696917572237551 -0.44878161072352785
H -1.7593495577683322 -0.029447327208712917 -1.8270431633000952
H -0.4762410954575739 1.1557692209872479 -1.6623703152182412
H 0.39539562472760875 -1.214140650605186 -1.041631285181934
H 0.5825925122510788 -1.3852364161956656 0.6935123753446668
H 1.6174243474938645 0.8530584737882234 0.8884265492567358
H 1.520356355351946 1.0708290167604428 -0.8593218008771729
H 3.0340045296108706 -1.1928235869193216 0.5470322494875679
H 2.9213240256604305 -0.9764073020115498 -1.2052333659240442
H 4.916347183131502 -0.04925447586869353 -0.39490454215178433
H 3.9700189543817395 1.1662690215490628 -0.9362011817381317
H -1.9009511477023362 -1.8160455041165655 0.04154689837909673
H -2.9010435849435563 -0.4489795281227972 0.5018446158390499
H -0.8079287556843183 -1.7174701388034324 2.318989931256216
H -2.5648327472526002 -1.782419966654073 2.459857624142337
H -1.7237292714646693 -0.2425363960962948 2.6849970013355917


--Link1--
%nprocshared=4
%mem=8GB
%Oldchk=QOHMWDJIBGVPIF-UHFFFAOYSA-N_conf_2_0.chk
%Chk=QOHMWDJIBGVPIF-UHFFFAOYSA-N_conf_2_1.chk
# freq B3LYP/6-31G** SCRF=(Solvent=water) volume NMR pop=NPA density=current Geom=AllCheck Guess=Read


--Link1--
%nprocshared=4
%mem=8GB
%Oldchk=QOHMWDJIBGVPIF-UHFFFAOYSA-N_conf_2_1.chk
%Chk=QOHMWDJIBGVPIF-UHFFFAOYSA-N_conf_2_2.chk
# TD(NStates=10, Root=1) B3LYP/6-31G** SCRF=(Solvent=water) volume pop=NPA density=current Geom=AllCheck Guess=Read



