%nprocshared=6
%mem=12GB
%Chk=OXEZLYIDQPBCBB-UHFFFAOYSA-N_conf_2_0.chk
# opt=CalcFc B3LYP/6-31G** SCRF=(Solvent=water) scf=xqc 

OXEZLYIDQPBCBB-UHFFFAOYSA-N_conf_2

0 1
C -2.1782909047907046 -0.5134473306743448 -0.09348432871438911
C -1.2934904012432356 -0.731559813351244 1.1507318887027664
C -0.0156923932380563 0.11477248847474047 1.2390074809815805
C 0.9277760927380119 -0.07042663274670675 0.045012600672438265
C 2.2685281100904007 0.6726430936146478 0.21413495605386018
C 3.1961532744908507 0.018757068059187504 1.2581543782325402
C 4.273159646626351 -0.8474289138616772 0.6090621554950393
N 5.136153002961793 -0.10770972760254313 -0.31118923017943245
C 4.473376268089847 1.0134959308327773 -0.9790587746915849
C 2.974500846119032 0.7905939850457692 -1.1506166691001234
C -3.314474008823337 -1.5574844196072481 -0.10359175920147846
C -4.506742946768003 -1.073059387481555 -0.9219092751121741
N -5.113334540348765 0.13693399685570756 -0.36416164423302605
C -4.168848233857155 1.0108202336694636 0.3318582549858586
C -2.744347961629624 0.9147739734217807 -0.2084742310617605
H -1.5652314731711656 -0.6944624166582268 -0.9851842777484273
H -1.8884794867729835 -0.5420730929860229 2.053587168447357
H -1.0018422027591252 -1.7894416207462154 1.1926954783316306
H 0.49520373666364514 -0.1636731107081178 2.167307692625115
H -0.26800215592213456 1.1753656235056142 1.3441410848117037
H 0.4315041712791224 0.31275376150184164 -0.8545995950157897
H 1.114531255767473 -1.1385217415374345 -0.1213306681113088
H 2.0447166185602184 1.6895638450607469 0.5648049714849277
H 2.6350802154353183 -0.5830865100966925 1.979742883926948
H 3.6862330911192958 0.8106470039950036 1.8405850113993345
H 4.894795465104285 -1.3080786007237428 1.3851895114063777
H 3.800847469259871 -1.6738892167761648 0.06442139824741375
H 5.958858668654192 0.23870450956343398 0.18140729355870522
H 4.94140445969922 1.1634386908841101 -1.9577066978557884
H 4.640169489718043 1.9317021583271738 -0.40221346930424245
H 2.8091787513716016 -0.11359925491958338 -1.7516157285610081
H 2.53707629438011 1.6221801833971834 -1.7162499605915424
H -2.937769733286489 -2.501038130423282 -0.5167343908363438
H -3.647261455008511 -1.7794120437089571 0.9191379048983397
H -4.186805184061504 -0.8802825873982963 -1.9534613066444306
H -5.269624596098458 -1.8574658201094314 -0.9670713947149421
H -5.579337996312749 0.6493104879958523 -1.1123406670433653
H -4.174802693680699 0.7587472112073743 1.399081023025181
H -4.5231789842126995 2.0452816250489785 0.25889297806306727
H -2.1103964593203313 1.648546972629092 0.29690090468150165
H -2.7512931168212535 1.2071075290262938 -1.2674733977139985


--Link1--
%nprocshared=6
%mem=12GB
%Oldchk=OXEZLYIDQPBCBB-UHFFFAOYSA-N_conf_2_0.chk
%Chk=OXEZLYIDQPBCBB-UHFFFAOYSA-N_conf_2_1.chk
# freq B3LYP/6-31G** SCRF=(Solvent=water) volume NMR pop=NPA density=current Geom=AllCheck Guess=Read


--Link1--
%nprocshared=6
%mem=12GB
%Oldchk=OXEZLYIDQPBCBB-UHFFFAOYSA-N_conf_2_1.chk
%Chk=OXEZLYIDQPBCBB-UHFFFAOYSA-N_conf_2_2.chk
# TD(NStates=10, Root=1) B3LYP/6-31G** SCRF=(Solvent=water) volume pop=NPA density=current Geom=AllCheck Guess=Read



