%nprocshared=6
%mem=12GB
%Chk=OXEZLYIDQPBCBB-UHFFFAOYSA-N_conf_1_0.chk
# opt=CalcFc B3LYP/6-31G** SCRF=(Solvent=water) scf=xqc 

OXEZLYIDQPBCBB-UHFFFAOYSA-N_conf_1

0 1
C -2.5185270812210536 0.7097324122786263 1.1932326410755447
C -1.4168768800851597 -0.2829795455530013 0.7616311889286045
C -0.04975140668427014 0.37853210943127646 0.5505683524198886
C 1.0305789650376591 -0.6688699178947531 0.258881218033621
C 2.4474546088868916 -0.0750160553942713 0.15338255550750973
C 2.595814211761691 0.9048397234099325 -1.0206420082564978
C 4.042664874453729 1.3704263116303421 -1.1849133722483185
N 4.957982461874502 0.24116192558034732 -1.338634129170797
C 4.89230111564994 -0.654803071252229 -0.18537202648496923
C 3.481076672441077 -1.2044177318830636 0.01069565607877739
C -2.8575140426955405 1.7643511823434377 0.1273099658018907
C -3.63159977108786 1.1751344360744485 -1.0517947747828331
N -4.850816427325965 0.5018650551115846 -0.6056279561814186
C -4.562282606911108 -0.5655598935596097 0.35122180011810744
C -3.8099921230622495 -0.03658174641463146 1.5731171661037042
H -2.1572966726112077 1.2321246811180186 2.0889478937351496
H -1.3153649309655477 -1.0487107281467498 1.5416848210774665
H -1.7039083525144707 -0.8113626253775946 -0.15435763197005023
H 0.2248878132423526 0.9494222367809246 1.4452962412504036
H -0.10869018981773354 1.0814600092617264 -0.2853378275171046
H 0.7801694612255284 -1.2002692429908868 -0.6681411835432798
H 1.0225573380306343 -1.4172560419515292 1.0617951414459577
H 2.664663980594022 0.46738571740946055 1.0838527827604332
H 2.258395399565092 0.4269922916347089 -1.9496099235952828
H 1.963051539030741 1.7856529105779069 -0.8659800258443988
H 4.114364624489725 2.006946265263964 -2.0736837399740566
H 4.342178705815523 1.9849674126167287 -0.3270286491609202
H 5.910370351605242 0.5914789768358597 -1.438341675558962
H 5.582786710381492 -1.4899127926770181 -0.3463464025129015
H 5.226501016103213 -0.13284446747890816 0.7196180996490658
H 3.4627452775633296 -1.8419140837250392 0.9028218025793292
H 3.218818297111424 -1.8445017634952472 -0.842163396424501
H -3.471789529724517 2.546550886005034 0.5942997134256013
H -1.9568802752405898 2.269421552493702 -0.23512088573497164
H -3.910474298126043 1.9861437239163693 -1.7336745750504674
H -3.0025231008449493 0.484112752048168 -1.6245434936850704
H -5.334702083411537 0.10990072570228872 -1.412936057072229
H -5.510025725785304 -1.005163310710766 0.6813909604729598
H -3.996363823683007 -1.3680102574361663 -0.13585416616546778
H -3.587789534656428 -0.863920661686594 2.257363926434736
H -4.4661945684090965 0.6514734824551016 2.122991974035601


--Link1--
%nprocshared=6
%mem=12GB
%Oldchk=OXEZLYIDQPBCBB-UHFFFAOYSA-N_conf_1_0.chk
%Chk=OXEZLYIDQPBCBB-UHFFFAOYSA-N_conf_1_1.chk
# freq B3LYP/6-31G** SCRF=(Solvent=water) volume NMR pop=NPA density=current Geom=AllCheck Guess=Read


--Link1--
%nprocshared=6
%mem=12GB
%Oldchk=OXEZLYIDQPBCBB-UHFFFAOYSA-N_conf_1_1.chk
%Chk=OXEZLYIDQPBCBB-UHFFFAOYSA-N_conf_1_2.chk
# TD(NStates=10, Root=1) B3LYP/6-31G** SCRF=(Solvent=water) volume pop=NPA density=current Geom=AllCheck Guess=Read



