%nprocshared=7
%mem=14GB
%Chk=GDGWSSXWLLHGGV-SFHVURJKSA-N_conf_3_0.chk
# opt=CalcFc B3LYP/6-31G** SCRF=(Solvent=water) scf=xqc 

GDGWSSXWLLHGGV-SFHVURJKSA-N_conf_3

0 1
N -2.413534941830222 3.421826080482662 1.557766029344432
C -2.2704484638703737 2.1057499577308993 1.0981460431541734
C -1.170465658728632 1.7534546204386954 0.31145254946975237
C -0.9699512801331609 0.417504110283839 -0.033974928712477336
C -1.8427144541435383 -0.5766072862007765 0.4206798965603085
C -1.4641057625291336 -1.940895679427296 -0.09829398849849177
C -1.3988093872845588 -2.9914146266271224 1.019431243128506
C -2.445019110986222 -2.4094538958613603 -1.180658938903467
C -0.044990678651732785 -1.681103283933145 -0.6779064549778187
C 0.13222804870138258 -0.1467444835228435 -0.9164331242401249
C 1.5478137638877631 0.277648299393818 -0.48884947749416796
C 2.5604200727801802 0.5672833543295461 -1.4162020962514794
C 3.846748544881147 0.9337272032254679 -0.9967244419886568
C 4.153514511798682 1.05579868904746 0.35723964401307706
N 5.467876820141862 1.3083449513360246 0.766270281784127
C 3.1812685903827065 0.6988593032813725 1.2880354289927873
C 1.8951540028864302 0.33243991375977094 0.8748313924863549
C -0.20780310773628563 0.21891811480821502 -2.3767822639787686
C -2.9104824326333794 -0.24603757296958204 1.2436375304342646
C -3.102934356955504 1.0931741051561195 1.5984995864678442
H -2.0009081703287097 4.114017104550809 0.9405685678807983
H -3.3628441043974315 3.6586181654495444 1.8267463977579999
H -0.4703795588604867 2.5109823824324433 -0.028321423635239398
H -0.7483522654208632 -2.6657429471098806 1.8398851139359678
H -2.388381185376233 -3.1864171597334137 1.4481867966666917
H -1.0089216489919275 -3.94245911192261 0.6394222982814026
H -2.1184476632755502 -3.3584688526056987 -1.6205048631462577
H -2.5453920965821064 -1.683867085943829 -1.9931944386564384
H -3.4481913846753307 -2.563625019626642 -0.7657688879568698
H 0.7052650345634096 -2.042588406251217 0.039945273691687336
H 0.13768459317289541 -2.259439177119008 -1.5926973961808155
H 2.384177893313888 0.5011487177865388 -2.485918720206648
H 4.6097381823796155 1.1221726650495867 -1.7473765738216367
H 6.004190273791919 1.85336780505175 0.09905215407941521
H 5.534224602250355 1.67984061192666 1.7086984429433905
H 3.41015439701587 0.7022860512185161 2.350188741289088
H 1.1638666614739552 0.0768968746483012 1.64040952532149
H -1.2534040856661304 0.009598372841794727 -2.625605713314063
H -0.04917001434925494 1.2876389448773007 -2.5672312346359685
H 0.4066117371996934 -0.34421136314886813 -3.0881985625300277
H -3.5867224792652315 -1.0074827624033997 1.619289223710292
H -3.9185634379512764 1.3452623152989083 2.2711994616498097


--Link1--
%nprocshared=7
%mem=14GB
%Oldchk=GDGWSSXWLLHGGV-SFHVURJKSA-N_conf_3_0.chk
%Chk=GDGWSSXWLLHGGV-SFHVURJKSA-N_conf_3_1.chk
# freq B3LYP/6-31G** SCRF=(Solvent=water) volume NMR pop=NPA density=current Geom=AllCheck Guess=Read


--Link1--
%nprocshared=7
%mem=14GB
%Oldchk=GDGWSSXWLLHGGV-SFHVURJKSA-N_conf_3_1.chk
%Chk=GDGWSSXWLLHGGV-SFHVURJKSA-N_conf_3_2.chk
# TD(NStates=10, Root=1) B3LYP/6-31G** SCRF=(Solvent=water) volume pop=NPA density=current Geom=AllCheck Guess=Read



