%nprocshared=7
%mem=14GB
%Chk=GDGWSSXWLLHGGV-SFHVURJKSA-N_conf_1_0.chk
# opt=CalcFc B3LYP/6-31G** SCRF=(Solvent=water) scf=xqc 

GDGWSSXWLLHGGV-SFHVURJKSA-N_conf_1

0 1
N -2.2306863583327003 -3.5313697371551416 1.607874228463201
C -2.1633824937544466 -2.2739087979377124 0.9930198815870468
C -0.9816886149276236 -1.8588330301864544 0.3731210533373278
C -0.8835974577488971 -0.5595116737082578 -0.123299453906726
C -1.9451773418448934 0.34060075345016766 0.01645254900605435
C -1.6430943563913443 1.6733722049651858 -0.6210628114344093
C -1.9306661666778633 2.8490564112039736 0.3235182662403779
C -2.4407603411688554 1.8559447766439798 -1.9186170781615193
C -0.11634655679073182 1.5604417857457333 -0.8923820236837907
C 0.2929562656271547 0.05233230176261222 -0.8671235298381585
C 1.6373696822309756 -0.10101352489886584 -0.13510366758458373
C 2.841329321703794 -0.3458856433691786 -0.8131580871468949
C 4.054497804769825 -0.4626278931904965 -0.12071473789558289
C 4.1000281251552755 -0.37311265251048126 1.2693010632522166
N 5.328428472940962 -0.3751433427866564 1.9398684402585233
C 2.9263033457773986 -0.05574446702415781 1.9480476056086504
C 1.7121042325043876 0.061755972621399 1.2617471727545264
C 0.2964649003323308 -0.5336759501548821 -2.2948941461951375
C -3.105403528192696 -0.04395884130582742 0.6742189429374295
C -3.1971141223664654 -1.3441358929440084 1.1817449490634626
H -1.6217536076266552 -4.223552690589527 1.1831331858220249
H -3.177726997197417 -3.8730749836127583 1.73420215478484
H -0.1400170270147045 -2.5386979111729477 0.279391064574077
H -1.4202057741841068 2.725698439246823 1.2860746190426198
H -1.5939801127738078 3.794746211991591 -0.11604907966209428
H -3.001870370334248 2.944367146429284 0.5345807897744085
H -3.5173910305947027 1.907517497881875 -1.717460401119116
H -2.287917228281017 1.0307193772529797 -2.6203323282333515
H -2.1535378834144057 2.782930175551484 -2.4274792644369194
H 0.17072816272273897 2.044826441405706 -1.8345311616961248
H 0.4264723855140167 2.113971557501981 -0.11275557621785184
H 2.87340805232395 -0.43645562416899897 -1.895051610199517
H 4.968252675474031 -0.6241620640314856 -0.6864885348577516
H 5.252458674312173 -0.6160338530574319 2.923120423895034
H 6.049384883167795 -0.9104117842903381 1.4670340375786914
H 2.939152438881856 0.10333198387235072 3.0228023657679826
H 0.8179215639212217 0.2956738410878992 1.837862462466727
H 0.9649948128453982 0.024864084661162977 -2.9595973325551146
H -0.6969422121154006 -0.5145457218355943 -2.755092976549285
H 0.6206200999436534 -1.5817813237503815 -2.2946375257921523
H -3.9314741400741653 0.6476426067479731 0.8065384578500568
H -4.092142178341673 -1.632156166342156 1.7269901832634704


--Link1--
%nprocshared=7
%mem=14GB
%Oldchk=GDGWSSXWLLHGGV-SFHVURJKSA-N_conf_1_0.chk
%Chk=GDGWSSXWLLHGGV-SFHVURJKSA-N_conf_1_1.chk
# freq B3LYP/6-31G** SCRF=(Solvent=water) volume NMR pop=NPA density=current Geom=AllCheck Guess=Read


--Link1--
%nprocshared=7
%mem=14GB
%Oldchk=GDGWSSXWLLHGGV-SFHVURJKSA-N_conf_1_1.chk
%Chk=GDGWSSXWLLHGGV-SFHVURJKSA-N_conf_1_2.chk
# TD(NStates=10, Root=1) B3LYP/6-31G** SCRF=(Solvent=water) volume pop=NPA density=current Geom=AllCheck Guess=Read



