%nprocshared=2
%mem=4GB
%Chk=KFIGICHILYTCJF-UHFFFAOYSA-N_conf_1_0.chk
# opt=CalcFc B3LYP/6-31G** SCRF=(Solvent=water) scf=xqc 

KFIGICHILYTCJF-UHFFFAOYSA-N_conf_1

0 1
C 1.6661259203334555 0.47044529083958403 0.6784923406305728
N 0.6134493626923004 -0.45204363355933036 1.0854269432771835
C -0.12352172588480888 -0.9967285339018205 -0.07102764147363111
C -1.0904970006223433 0.018252552406518362 -0.7159868943176328
N -1.961428163964617 0.6295804589073288 0.29118779265689865
H 2.2153599896993557 0.8040686237126982 1.5646356798662413
H 1.258369044276277 1.3639855293944272 0.19697183951423394
H 2.3819200984218982 -0.00840685620644418 0.0025603381821430126
H 1.0394947555115885 -1.2319468755986152 1.586901581845172
H 0.5674675906976333 -1.3946365407269266 -0.8235922361358632
H -0.7151760935494172 -1.847158556896424 0.29025084036964743
H -0.5183850969107255 0.8037985822419995 -1.2215324180278142
H -1.704880440060559 -0.4800653907988645 -1.4726200711312745
H -2.24111949556438 1.5572110464424647 -0.01845197300903449
H -1.3871787450756556 0.7636443037434485 1.1303188536837918


--Link1--
%nprocshared=2
%mem=4GB
%Oldchk=KFIGICHILYTCJF-UHFFFAOYSA-N_conf_1_0.chk
%Chk=KFIGICHILYTCJF-UHFFFAOYSA-N_conf_1_1.chk
# freq B3LYP/6-31G** SCRF=(Solvent=water) volume NMR pop=NPA density=current Geom=AllCheck Guess=Read


--Link1--
%nprocshared=2
%mem=4GB
%Oldchk=KFIGICHILYTCJF-UHFFFAOYSA-N_conf_1_1.chk
%Chk=KFIGICHILYTCJF-UHFFFAOYSA-N_conf_1_2.chk
# TD(NStates=10, Root=1) B3LYP/6-31G** SCRF=(Solvent=water) volume pop=NPA density=current Geom=AllCheck Guess=Read



