%nprocshared=2
%mem=4GB
%Chk=KFIGICHILYTCJF-UHFFFAOYSA-N_conf_0_0.chk
# opt=CalcFc B3LYP/6-31G** SCRF=(Solvent=water) scf=xqc 

KFIGICHILYTCJF-UHFFFAOYSA-N_conf_0

0 1
C -2.324209385230616 -0.044465805105244394 -0.43845819434109823
N -1.1270023537267344 -0.6150588684562133 0.16557144801478998
C 0.05421671628335731 0.19549238748308917 -0.1539342844081128
C 1.319467898055362 -0.41419611427406566 0.47686399229075277
N 2.511682900306336 0.3773749660425097 0.17013469012347432
H -2.242915857296452 -0.018082808541969565 -1.5299105070917933
H -2.5179519512002417 0.9676228484190524 -0.06844352569011583
H -3.18964124125248 -0.6657713117289974 -0.18801003091499782
H -1.247052169636809 -0.6425003071803548 1.178352986339102
H -0.08042941290137474 1.2189982836687143 0.21781636232110196
H 0.18455669664977567 0.2453849876349204 -1.2420889594008482
H 1.4658748118161735 -1.4370605079966157 0.110899635194591
H 1.2049187276847013 -0.4656470906345221 1.5655419156004697
H 2.6621520064816897 0.3778887597929896 -0.8385287750660804
H 3.3263326139673564 -0.08365487249161857 0.5741932470287214


--Link1--
%nprocshared=2
%mem=4GB
%Oldchk=KFIGICHILYTCJF-UHFFFAOYSA-N_conf_0_0.chk
%Chk=KFIGICHILYTCJF-UHFFFAOYSA-N_conf_0_1.chk
# freq B3LYP/6-31G** SCRF=(Solvent=water) volume NMR pop=NPA density=current Geom=AllCheck Guess=Read


--Link1--
%nprocshared=2
%mem=4GB
%Oldchk=KFIGICHILYTCJF-UHFFFAOYSA-N_conf_0_1.chk
%Chk=KFIGICHILYTCJF-UHFFFAOYSA-N_conf_0_2.chk
# TD(NStates=10, Root=1) B3LYP/6-31G** SCRF=(Solvent=water) volume pop=NPA density=current Geom=AllCheck Guess=Read



