%nprocshared=3
%mem=6GB
%Chk=KVKFRMCSXWQSNT-UHFFFAOYSA-N_conf_0_0.chk
# opt=CalcFc B3LYP/6-31G** SCRF=(Solvent=water) scf=xqc 

KVKFRMCSXWQSNT-UHFFFAOYSA-N_conf_0

0 1
C -2.8366307402645523 -0.09824695814248115 -0.1417118106622062
N -1.6556995985493843 -0.7671631014347977 0.38915261678912916
C -0.49390363494231704 0.1332393999141658 0.36866671657569455
C 0.7572068414277531 -0.5783392811332727 0.9246332820296492
N 1.9346994080915305 0.29182761870679674 1.0558623072918816
C 2.4887120733806656 0.6703708604673898 -0.238542804894209
H -3.0999647020902446 0.7835590122364112 0.4514430616120667
H -2.6868478505284767 0.2018848518591082 -1.1838479578870478
H -3.6868961948809296 -0.7868229190270438 -0.11673127402872577
H -1.839232367641927 -1.0494396838099513 1.3521524775979838
H -0.30684402423328894 0.45562573624040925 -0.661690645162874
H -0.7021516148451344 1.024954994582754 0.9728114055369698
H 1.000331907509738 -1.4575006640683692 0.31446472429873046
H 0.5232424131936316 -0.953695740099227 1.9288909276353574
H 2.6504584418843984 -0.21821242631522006 1.574401949096493
H 3.407678099214416 1.244487420744187 -0.08243170963616878
H 1.8035226556417314 1.31076682975094 -0.8012507380446928
H 2.742318887632285 -0.20729595047177413 -0.8418226018085172


--Link1--
%nprocshared=3
%mem=6GB
%Oldchk=KVKFRMCSXWQSNT-UHFFFAOYSA-N_conf_0_0.chk
%Chk=KVKFRMCSXWQSNT-UHFFFAOYSA-N_conf_0_1.chk
# freq B3LYP/6-31G** SCRF=(Solvent=water) volume NMR pop=NPA density=current Geom=AllCheck Guess=Read


--Link1--
%nprocshared=3
%mem=6GB
%Oldchk=KVKFRMCSXWQSNT-UHFFFAOYSA-N_conf_0_1.chk
%Chk=KVKFRMCSXWQSNT-UHFFFAOYSA-N_conf_0_2.chk
# TD(NStates=10, Root=1) B3LYP/6-31G** SCRF=(Solvent=water) volume pop=NPA density=current Geom=AllCheck Guess=Read



