%nprocshared=3
%mem=6GB
%Chk=ISKQADXMHQSTHK-UHFFFAOYSA-N_conf_3_0.chk
# opt=CalcFc B3LYP/6-31G** SCRF=(Solvent=water) scf=xqc 

ISKQADXMHQSTHK-UHFFFAOYSA-N_conf_3

0 1
N -3.367387114670664 0.8896936813534962 0.7923891772598766
C -2.863117342055289 0.42651505022304725 -0.4949175037885384
C -1.3833560708791965 0.14909034372423338 -0.434256517028869
C -0.9110378394553019 -1.1168929682840902 -0.06344812567937032
C 0.4610063823532193 -1.3677928035927547 0.015258107044844715
C 1.3874977153005679 -0.35760357636360907 -0.275308274271498
C 2.866986783267076 -0.6213242510206598 -0.16621523061237972
N 3.356465321865043 -0.33986309271346915 1.1780953037305344
C 0.9150761531071563 0.9135828086953025 -0.6277288459065067
C -0.4569680557955768 1.1644830526465575 -0.706434110382819
H -2.8440680080742586 1.7201756896004476 1.0665921347416962
H -3.1490404841333164 0.18787774429065218 1.4984554817167999
H -3.073493108419261 1.1788897460305132 -1.2637155298625162
H -3.4033080538197265 -0.4781978540626934 -0.7966863771440439
H -1.6116749942227397 -1.9170003549276304 0.16614942952638792
H 0.8043327880695212 -2.3588052708220646 0.3047414314933344
H 3.4129512648504843 -0.0072624049099963605 -0.8916296448897266
H 3.0831354920887906 -1.6643473491290421 -0.42459197390080977
H 2.8278752360121993 -0.9050904762001062 1.8413155930404583
H 3.1328537175724063 0.6272068301055802 1.4094496925598627
H 1.6156388012520804 1.7174301166124994 -0.8441091217543503
H -0.8003685842139125 2.159235338744527 -0.9827009330452826


--Link1--
%nprocshared=3
%mem=6GB
%Oldchk=ISKQADXMHQSTHK-UHFFFAOYSA-N_conf_3_0.chk
%Chk=ISKQADXMHQSTHK-UHFFFAOYSA-N_conf_3_1.chk
# freq B3LYP/6-31G** SCRF=(Solvent=water) volume NMR pop=NPA density=current Geom=AllCheck Guess=Read


--Link1--
%nprocshared=3
%mem=6GB
%Oldchk=ISKQADXMHQSTHK-UHFFFAOYSA-N_conf_3_1.chk
%Chk=ISKQADXMHQSTHK-UHFFFAOYSA-N_conf_3_2.chk
# TD(NStates=10, Root=1) B3LYP/6-31G** SCRF=(Solvent=water) volume pop=NPA density=current Geom=AllCheck Guess=Read



