%nprocshared=3
%mem=6GB
%Chk=ISKQADXMHQSTHK-UHFFFAOYSA-N_conf_1_0.chk
# opt=CalcFc B3LYP/6-31G** SCRF=(Solvent=water) scf=xqc 

ISKQADXMHQSTHK-UHFFFAOYSA-N_conf_1

0 1
N 3.207965888197799 1.1968107692909087 0.9240214236189527
C 2.863722543171424 0.20277175261455962 -0.08531364907471939
C 1.3805041372458249 -0.0622934533383299 -0.1133601072243287
C 0.748868684153939 -0.6736483064818227 0.978470626796749
C -0.6249356889652626 -0.9249315069217959 0.9585093622357226
C -1.3954137443041401 -0.5743049712600935 -0.15759203042029424
C -2.881848423815506 -0.8190099252117234 -0.16847163734993206
N -3.6084425153798585 0.31543094142528877 0.3901870621118661
C -0.7676469913362547 0.04841077337293932 -1.2446985848882723
C 0.6070795201241197 0.2998383951642593 -1.223802470647084
H 4.192350366971169 1.43782661606658 0.832561961187722
H 2.6822088824845385 2.0492014535144256 0.736137532687664
H 3.207409414862466 0.5511606828484918 -1.0660923929233992
H 3.3934994913254113 -0.7340107225204517 0.12161852513507296
H 1.3316745257904221 -0.9467723732910522 1.8562606215725013
H -1.0905243818509285 -1.3944913963562051 1.822169048509432
H -3.224902195339177 -1.0056752627820171 -1.1925941388723997
H -3.1183359420931493 -1.7239370063557617 0.40298548815369434
H -3.356626324144995 1.1514363529222942 -0.13570910085501725
H -3.2670592102205256 0.4823301959370432 1.3363045613240767
H -1.3482598916562685 0.3417666079939089 -2.1166849163619634
H 1.0687118547788217 0.7820903833685066 -2.08229547934168


--Link1--
%nprocshared=3
%mem=6GB
%Oldchk=ISKQADXMHQSTHK-UHFFFAOYSA-N_conf_1_0.chk
%Chk=ISKQADXMHQSTHK-UHFFFAOYSA-N_conf_1_1.chk
# freq B3LYP/6-31G** SCRF=(Solvent=water) volume NMR pop=NPA density=current Geom=AllCheck Guess=Read


--Link1--
%nprocshared=3
%mem=6GB
%Oldchk=ISKQADXMHQSTHK-UHFFFAOYSA-N_conf_1_1.chk
%Chk=ISKQADXMHQSTHK-UHFFFAOYSA-N_conf_1_2.chk
# TD(NStates=10, Root=1) B3LYP/6-31G** SCRF=(Solvent=water) volume pop=NPA density=current Geom=AllCheck Guess=Read



