%nprocshared=4
%mem=8GB
%Chk=NFCPRRWCTNLGSN-UHFFFAOYSA-N_conf_1_0.chk
# opt=CalcFc B3LYP/6-31G** SCRF=(Solvent=water) scf=xqc 

NFCPRRWCTNLGSN-UHFFFAOYSA-N_conf_1

0 1
N 2.2518761261112608 -2.2186390040892374 0.1531900072626539
C 2.267530198973166 -0.8767328397797848 -0.268717221608373
C 3.4887172601790466 -0.20531512051698075 -0.3844674554738761
C 3.5235425983478286 1.156028494784499 -0.6905463956245046
C 2.335540788796029 1.8619609794303171 -0.8631770052382257
C 1.1097973634408194 1.2113969540844662 -0.7136851307944746
C 1.060741206866007 -0.1486314165156229 -0.37483871515639716
N -0.17601745036051206 -0.858510947459246 -0.3233388566228016
C -1.4064289003325325 -0.3631311310446728 0.1725184572596171
C -2.6120489489832526 -0.8510325115452394 -0.35004542597268956
C -3.8402939147050636 -0.424857707512988 0.1634596009900992
C -3.8776598569049154 0.47436947930311846 1.2263378149955353
C -2.688109987290802 0.9359835423833993 1.7839473294857766
C -1.4619046988407411 0.5085167751246333 1.2679844783581415
H 1.3292500446701567 -2.63601567302915 0.06182448482554842
H 3.010789048962034 -2.7847888812808153 -0.2054046201049632
H 4.421627423862368 -0.7391497705950221 -0.22674884443906795
H 4.478644241671181 1.6655005995811885 -0.7870063119422279
H 2.3611053929895913 2.9197928591448985 -1.111029849461379
H 0.19169993446876424 1.7722949333770737 -0.8668266008685679
H -0.30866170776314816 -1.303467819538995 -1.2289115469840903
H -2.6077549131410986 -1.5669349587195875 -1.167343394850033
H -4.7665228065106495 -0.8025457983653175 -0.2613591704835614
H -4.8316584904641315 0.8027932029317547 1.6300512114592944
H -2.710010178384157 1.6188156358994463 2.6290098922633134
H -0.5437897756573502 0.8523001239479788 1.738500443686949


--Link1--
%nprocshared=4
%mem=8GB
%Oldchk=NFCPRRWCTNLGSN-UHFFFAOYSA-N_conf_1_0.chk
%Chk=NFCPRRWCTNLGSN-UHFFFAOYSA-N_conf_1_1.chk
# freq B3LYP/6-31G** SCRF=(Solvent=water) volume NMR pop=NPA density=current Geom=AllCheck Guess=Read


--Link1--
%nprocshared=4
%mem=8GB
%Oldchk=NFCPRRWCTNLGSN-UHFFFAOYSA-N_conf_1_1.chk
%Chk=NFCPRRWCTNLGSN-UHFFFAOYSA-N_conf_1_2.chk
# TD(NStates=10, Root=1) B3LYP/6-31G** SCRF=(Solvent=water) volume pop=NPA density=current Geom=AllCheck Guess=Read



