%nprocshared=6
%mem=12GB
%Chk=KLNPWTHGTVSSEU-UHFFFAOYSA-N_conf_0_0.chk
# opt=CalcFc B3LYP/6-31G** SCRF=(Solvent=water) scf=xqc 

KLNPWTHGTVSSEU-UHFFFAOYSA-N_conf_0

0 1
N 5.1393473127124505 1.7605564999103034 -0.7371427201138135
C 4.804249848343722 1.4238466027935295 0.6409240623691644
C 4.703743009119957 -0.08819879174421537 0.8524630487921574
C 3.648003927371304 -0.8025979928158805 0.0002705655034819206
C 2.219184297354893 -0.3355470225125055 0.2866258280819405
C 1.198313906025301 -1.1604823954775845 -0.5006366648786872
C -0.2317183089835376 -0.6957085647144726 -0.21526154062304062
C -1.2498613758132566 -1.5183094602215046 -1.0080164368187896
C -2.704311699238027 -1.1717938005890367 -0.6734152858141658
C -3.0938024480734017 0.2543017902731004 -1.0710870273245197
C -4.598694084203308 0.5265968625205484 -0.949798317474559
C -5.178533331824319 0.3858570286342216 0.45923101812773637
N -4.548323775495427 1.3006236010050831 1.4029049956850674
H 5.2685476548628465 2.7681342332174697 -0.8175132647980462
H 6.031233295276309 1.3356065099833188 -0.9869947585302874
H 3.8664167775286304 1.9152119650527133 0.9179280860926445
H 5.580874119466845 1.8242559467001587 1.3023424611760999
H 4.494725958868571 -0.27872286565612486 1.9125656242922227
H 5.680524476180859 -0.5445151855433106 0.6459525709228215
H 3.720011927723727 -1.8782987295263276 0.204859415513776
H 3.8738088775661534 -0.6746117131484484 -1.0649629341884057
H 2.0118506336178394 -0.42275754467198234 1.3599493765680808
H 2.1083998180348487 0.720911538029639 0.017955474136029846
H 1.2996203554626515 -2.2200100153978735 -0.23587899049300923
H 1.4055504329145843 -1.0736196795633963 -1.57420759967925
H -0.32190242184460854 0.36488756277802176 -0.4752879376174201
H -0.43993384585784484 -0.7872309876954519 0.8575408910007728
H -1.095063443565135 -2.583216548131327 -0.7941355978883294
H -1.0777713487061469 -1.3846285096750734 -2.0829665906354937
H -2.870437722208531 -1.3235826769988785 0.39917958204292364
H -3.354169596246148 -1.8815667670110607 -1.1999267510027363
H -2.540304852315939 0.9806817099753029 -0.46607651118571947
H -2.8010918511562886 0.4286497046327642 -2.1139827555891406
H -5.139327388573032 -0.15471647147262071 -1.618642224604819
H -4.797101859283238 1.5407079736354683 -1.3201503810321449
H -6.253148759431812 0.5976668776976166 0.4238774611813345
H -5.068214672804096 -0.6415553427983613 0.820003002794818
H -4.674077878971022 2.2610140526304887 1.0860060455014084
H -5.016615963836209 1.2321606058961678 2.30530900926811


--Link1--
%nprocshared=6
%mem=12GB
%Oldchk=KLNPWTHGTVSSEU-UHFFFAOYSA-N_conf_0_0.chk
%Chk=KLNPWTHGTVSSEU-UHFFFAOYSA-N_conf_0_1.chk
# freq B3LYP/6-31G** SCRF=(Solvent=water) volume NMR pop=NPA density=current Geom=AllCheck Guess=Read


--Link1--
%nprocshared=6
%mem=12GB
%Oldchk=KLNPWTHGTVSSEU-UHFFFAOYSA-N_conf_0_1.chk
%Chk=KLNPWTHGTVSSEU-UHFFFAOYSA-N_conf_0_2.chk
# TD(NStates=10, Root=1) B3LYP/6-31G** SCRF=(Solvent=water) volume pop=NPA density=current Geom=AllCheck Guess=Read



