%nprocshared=6
%mem=12GB
%Chk=KLNPWTHGTVSSEU-UHFFFAOYSA-N_conf_1_0.chk
# opt=CalcFc B3LYP/6-31G** SCRF=(Solvent=water) scf=xqc 

KLNPWTHGTVSSEU-UHFFFAOYSA-N_conf_1

0 1
N 5.581977528904768 1.725783561255885 0.39570851778208965
C 4.319283810100751 1.6676412014639195 -0.33047333615233837
C 3.730368192799177 0.254917016890865 -0.36781305408424253
C 3.285301733914655 -0.25690487867885853 1.00586020647286
C 2.7158993215489953 -1.679586333304479 0.9706394467702878
C 1.479789770420066 -1.8875343667866775 0.09024375879539336
C 0.2901863573801719 -1.0137206032868025 0.49249672983145354
C -0.9493259018218471 -1.3479663013132293 -0.34071410995611234
C -2.14028342228438 -0.47283732125550376 0.05721616233337301
C -3.3767816906791155 -0.8068445189713321 -0.7802434215807073
C -4.630594065499354 -0.04013011071960361 -0.34781861621612153
C -4.528737997018334 1.4664598955947425 -0.5834539649002566
N -5.791393095855295 2.114554061083874 -0.24517646508312105
H 5.427942140615495 1.5090523814983043 1.3790587979797175
H 5.940457309873682 2.6797006643044035 0.3716760629180871
H 4.49641625413595 2.0028528869401296 -1.3582892478803037
H 3.6033840767548453 2.3639628289002648 0.12011911728292778
H 4.4605138647464 -0.4391640166795144 -0.8025401308977261
H 2.8706275416529703 0.27443365776819395 -1.0472559090527647
H 4.140711706907823 -0.26384709559870645 1.69150367809307
H 2.550583962067297 0.4314951554502348 1.4386388786093245
H 2.470644177091113 -1.9775078585000736 1.997856814425377
H 3.5012884069163923 -2.36668167055142 0.6315447448976848
H 1.1887607248499428 -2.94327478380133 0.16166140091473666
H 1.7324287002121939 -1.7115204593421567 -0.9615549809966822
H 0.06829791540171103 -1.1612941112650903 1.5562468390632904
H 0.5383080564163575 0.0446391861492186 0.35462812012881045
H -0.7264351981979996 -1.2030162873971566 -1.4048483806132703
H -1.2088157546999443 -2.4049675246059397 -0.20518181176039438
H -2.3649636471936217 -0.6206804849560775 1.120356088798099
H -1.8699536010728062 0.580645454724317 -0.07523260822593218
H -3.1717691999526996 -0.6089213793453532 -1.8394078883102785
H -3.5872784647129436 -1.8802507377493378 -0.694969836069481
H -4.834833151694958 -0.24207367057698667 0.7113050003587444
H -5.4830436788357835 -0.43746906605554353 -0.9140711624712055
H -4.293945255046277 1.6690909384764203 -1.6336859910404464
H -3.7337365808504406 1.9027105013048733 0.029151530473089184
H -6.006503820522487 1.95541606274818 0.7383041695954317
H -5.694777026771778 3.1228381261875353 -0.3574857367348633


--Link1--
%nprocshared=6
%mem=12GB
%Oldchk=KLNPWTHGTVSSEU-UHFFFAOYSA-N_conf_1_0.chk
%Chk=KLNPWTHGTVSSEU-UHFFFAOYSA-N_conf_1_1.chk
# freq B3LYP/6-31G** SCRF=(Solvent=water) volume NMR pop=NPA density=current Geom=AllCheck Guess=Read


--Link1--
%nprocshared=6
%mem=12GB
%Oldchk=KLNPWTHGTVSSEU-UHFFFAOYSA-N_conf_1_1.chk
%Chk=KLNPWTHGTVSSEU-UHFFFAOYSA-N_conf_1_2.chk
# TD(NStates=10, Root=1) B3LYP/6-31G** SCRF=(Solvent=water) volume pop=NPA density=current Geom=AllCheck Guess=Read



