%nprocshared=6
%mem=12GB
%Chk=KLNPWTHGTVSSEU-UHFFFAOYSA-N_conf_2_0.chk
# opt=CalcFc B3LYP/6-31G** SCRF=(Solvent=water) scf=xqc 

KLNPWTHGTVSSEU-UHFFFAOYSA-N_conf_2

0 1
N -4.936510099626194 1.981854061230843 -1.678503579780836
C -4.220071258555042 1.383827420112553 -0.5567701258997584
C -4.212566608546566 -0.1386624603838029 -0.6863094746867778
C -3.559231677271192 -0.8464575888833936 0.5055807844782315
C -2.097218791509922 -0.4813680149685725 0.7866292147108725
C -1.1554716012181614 -0.804502593918351 -0.3761068911201416
C 0.3079469169309183 -0.44463368539108883 -0.09313459929156999
C 0.963346389632978 -1.3414083486012647 0.9583638192288212
C 2.4184818929975247 -0.9686936262069741 1.2740000693288014
C 3.388146078328091 -1.149619536304848 0.09935105059117046
C 3.682601974231669 0.13349484662172373 -0.6908599161647349
C 4.874866568350534 0.9396722692206684 -0.16446887702221333
N 4.646664990030038 1.4871027922003124 1.1652153921541157
H -5.901320978364568 1.6531993793056277 -1.6838043584565061
H -4.980123221910484 2.9920329883192425 -1.5508667300216217
H -4.700259165664087 1.682461111517375 0.38134716986608314
H -3.1984126220998057 1.7754214875013525 -0.5516333875353768
H -5.246069771354045 -0.501312400235513 -0.7647248890514796
H -3.7148192790144705 -0.43506117900574515 -1.61724378210931
H -4.146767487594122 -0.6317704397638824 1.4071663500629548
H -3.628900955609935 -1.929670671612283 0.3451041013498761
H -2.0178409348359168 0.5802471618450411 1.0464122761809111
H -1.7876264301439007 -1.0393851258194156 1.6773244334782593
H -1.231263331818228 -1.8677657095422153 -0.63341315186228
H -1.4663221474150994 -0.239894199732544 -1.2624507484394396
H 0.3760215294027369 0.6053776683310437 0.21529107501658254
H 0.8559570404583471 -0.5385040409595617 -1.037499853705607
H 0.9179787855504618 -2.3869048341281167 0.6296095532332815
H 0.4005211668669696 -1.2841383601686236 1.8965089115090925
H 2.4551337631717813 0.04912819201168096 1.6742627472603184
H 2.748952127814812 -1.630060829261872 2.0853840608710157
H 4.333471533737646 -1.559069426915255 0.4770265475405894
H 2.987372405745881 -1.9058935033426305 -0.586899627051145
H 3.9220956992339255 -0.15719617751763254 -1.721891615875453
H 2.795752919109733 0.7735505084474144 -0.7506234505158182
H 5.078048259045981 1.765230915018903 -0.8559038524118724
H 5.770369315426151 0.3089891414094814 -0.1441838184326924
H 3.8360183708075595 2.104512815625442 1.146407469990725
H 5.441048635676777 2.065869993944457 1.4344110405023265


--Link1--
%nprocshared=6
%mem=12GB
%Oldchk=KLNPWTHGTVSSEU-UHFFFAOYSA-N_conf_2_0.chk
%Chk=KLNPWTHGTVSSEU-UHFFFAOYSA-N_conf_2_1.chk
# freq B3LYP/6-31G** SCRF=(Solvent=water) volume NMR pop=NPA density=current Geom=AllCheck Guess=Read


--Link1--
%nprocshared=6
%mem=12GB
%Oldchk=KLNPWTHGTVSSEU-UHFFFAOYSA-N_conf_2_1.chk
%Chk=KLNPWTHGTVSSEU-UHFFFAOYSA-N_conf_2_2.chk
# TD(NStates=10, Root=1) B3LYP/6-31G** SCRF=(Solvent=water) volume pop=NPA density=current Geom=AllCheck Guess=Read



