%nprocshared=6
%mem=12GB
%Chk=KLNPWTHGTVSSEU-UHFFFAOYSA-N_conf_3_0.chk
# opt=CalcFc B3LYP/6-31G** SCRF=(Solvent=water) scf=xqc 

KLNPWTHGTVSSEU-UHFFFAOYSA-N_conf_3

0 1
N -6.77317079384447 -0.19067690902810971 0.45391344902029873
C -5.538773135376356 0.49768470780232144 0.09510508701090792
C -4.374336277000306 -0.4903111519486961 0.049558675219094635
C -3.068327114759351 0.2109422619811892 -0.3340511926152219
C -1.900805746838499 -0.7775775527222951 -0.3761369828135537
C -0.5903989616699632 -0.15578880114721597 -0.8704323200922258
C -0.008622113235526122 0.880455871249824 0.09415574741746802
C 1.29607679998492 1.5125206031811895 -0.4035025395649024
C 2.4621260237271234 0.549909470236455 -0.6548102220779822
C 2.8859445908039465 -0.2323625989554845 0.5905487566538219
C 4.056561933662356 -1.191352453900395 0.33703902083432014
C 5.372672131263957 -0.5308098236911256 -0.07862165158534062
N 5.852307166312421 0.4099412422410807 0.9260632666960752
H -7.528569275292719 0.48908709612103174 0.530982120031796
H -6.674543457185129 -0.61368595448906 1.375963207298483
H -5.337709546899858 1.287332357788374 0.827397964294419
H -5.667234603485278 0.9740428718599747 -0.8827143312650818
H -4.255413391614513 -0.9715690801227423 1.0286228876565804
H -4.590256343173289 -1.2843429250824365 -0.6764983129984528
H -2.863644162100178 1.005210897713656 0.3921430184339245
H -3.1825075422885587 0.6873699786751509 -1.3151770676210837
H -2.159189651736686 -1.6049795823452042 -1.0488668788131161
H -1.7485597802979966 -1.2153944154755238 0.6179124313453743
H -0.7472954951259686 0.2997924300836611 -1.8554910950690506
H 0.12894142191123742 -0.9709695850275311 -1.0079715103899782
H -0.7296620491128791 1.6930312159848593 0.23877639017565122
H 0.14437163298993944 0.42738288108137185 1.0800499139900643
H 1.6137175943000892 2.266891797170098 0.32736302543313817
H 1.0912982048045226 2.055606523214667 -1.3347624681992705
H 2.209614835527723 -0.14490558892652222 -1.4635820671003164
H 3.3059900668518503 1.1485232806180028 -1.0165248285135915
H 2.0429637324091323 -0.8347944978627252 0.9479680818394095
H 3.136904156807631 0.4638129587246619 1.3992413686971203
H 4.2247579915489 -1.7772511308811916 1.2500441452168094
H 3.766561836385715 -1.910519177307895 -0.439193891903338
H 5.259887472514026 -0.014128675747413855 -1.036630899812318
H 6.129789856912119 -1.309485207988778 -0.22507441311973403
H 6.764576172486912 0.7678615688247882 0.6464245854445199
H 5.993955819834815 -0.07576231666297598 1.8107695308452947


--Link1--
%nprocshared=6
%mem=12GB
%Oldchk=KLNPWTHGTVSSEU-UHFFFAOYSA-N_conf_3_0.chk
%Chk=KLNPWTHGTVSSEU-UHFFFAOYSA-N_conf_3_1.chk
# freq B3LYP/6-31G** SCRF=(Solvent=water) volume NMR pop=NPA density=current Geom=AllCheck Guess=Read


--Link1--
%nprocshared=6
%mem=12GB
%Oldchk=KLNPWTHGTVSSEU-UHFFFAOYSA-N_conf_3_1.chk
%Chk=KLNPWTHGTVSSEU-UHFFFAOYSA-N_conf_3_2.chk
# TD(NStates=10, Root=1) B3LYP/6-31G** SCRF=(Solvent=water) volume pop=NPA density=current Geom=AllCheck Guess=Read



