%nprocshared=3
%mem=6GB
%Chk=SCZVXVGZMZRGRU-UHFFFAOYSA-N_conf_1_0.chk
# opt=CalcFc B3LYP/6-31G** SCRF=(Solvent=water) scf=xqc 

SCZVXVGZMZRGRU-UHFFFAOYSA-N_conf_1

0 1
C -2.36337572641628 -0.9760062232142425 0.018889538154738567
C -1.27374697611188 0.04260812824185995 -0.28062664382187796
N -0.32054495138711236 0.07971026331010737 0.8257375974407993
C 0.736990017267402 1.0783707714774131 0.6238848287413061
C 1.7630332590911608 0.7368635900910759 -0.47826276586356387
N 2.2552348777937175 -0.6421885372500676 -0.40572414134122986
H -3.0898143578684123 -1.0023269345940289 -0.7997400627171742
H -2.9013603289953744 -0.722219371660991 0.9386069060608256
H -1.9460951654520748 -1.9824710227051878 0.13133698333288316
H -0.7809430776551592 -0.23408298070551586 -1.2186229080270126
H -1.7366089023757874 1.0266381438548065 -0.41565435768964515
H 0.09841614064707266 -0.8381673936819916 0.9603708169020759
H 0.3009344225979519 2.066196640958622 0.4329767461243596
H 1.2769304094928047 1.1648135513227682 1.5748994386774835
H 2.614842533547632 1.4208526442969125 -0.3981868563682211
H 1.318834717858276 0.8961014409385055 -1.4668114467263258
H 1.4813143501109156 -1.278322638400711 -0.5886643072527898
H 2.5659587578551846 -0.8363700722793568 0.5455906343733778


--Link1--
%nprocshared=3
%mem=6GB
%Oldchk=SCZVXVGZMZRGRU-UHFFFAOYSA-N_conf_1_0.chk
%Chk=SCZVXVGZMZRGRU-UHFFFAOYSA-N_conf_1_1.chk
# freq B3LYP/6-31G** SCRF=(Solvent=water) volume NMR pop=NPA density=current Geom=AllCheck Guess=Read


--Link1--
%nprocshared=3
%mem=6GB
%Oldchk=SCZVXVGZMZRGRU-UHFFFAOYSA-N_conf_1_1.chk
%Chk=SCZVXVGZMZRGRU-UHFFFAOYSA-N_conf_1_2.chk
# TD(NStates=10, Root=1) B3LYP/6-31G** SCRF=(Solvent=water) volume pop=NPA density=current Geom=AllCheck Guess=Read



