%nprocshared=3
%mem=6GB
%Chk=SCZVXVGZMZRGRU-UHFFFAOYSA-N_conf_0_0.chk
# opt=CalcFc B3LYP/6-31G** SCRF=(Solvent=water) scf=xqc 

SCZVXVGZMZRGRU-UHFFFAOYSA-N_conf_0

0 1
C -2.8982183158674317 0.04902946809009729 0.6045440279842738
C -1.5938414487796237 -0.515528514131409 0.06297082167877806
N -0.46808561766258444 0.2697230783282046 0.5655163307157387
C 0.8055088192005172 -0.24206359364136454 0.053521137834059984
C 1.987228624239125 0.5969270445778289 0.5779682901781424
N 3.278064965035024 0.11619399643811482 0.08204732354768117
H -3.7447543115899156 -0.5412866363838109 0.23926538739118655
H -3.0466705748335685 1.0854239247723139 0.28278956783576575
H -2.916722287473274 0.023278471669930453 1.6993850243267583
H -1.6209895706813244 -0.49289087115125646 -1.0325412459130665
H -1.4996400425540866 -1.5600274854494827 0.3809420885041629
H -0.580785464435898 1.2458869648765236 0.2912260515737841
H 0.8050877765067045 -0.2183682356818184 -1.0433828831841423
H 0.9391442569722083 -1.2843010635367837 0.36836376351593764
H 1.867264134302642 1.642986821753947 0.2737768576229201
H 2.003944286327693 0.5784447090797407 1.6736297728197174
H 3.4164707939535988 -0.8473329839518043 0.38551909234845116
H 3.2669939773403796 0.09390490434096169 -0.9365869442766855


--Link1--
%nprocshared=3
%mem=6GB
%Oldchk=SCZVXVGZMZRGRU-UHFFFAOYSA-N_conf_0_0.chk
%Chk=SCZVXVGZMZRGRU-UHFFFAOYSA-N_conf_0_1.chk
# freq B3LYP/6-31G** SCRF=(Solvent=water) volume NMR pop=NPA density=current Geom=AllCheck Guess=Read


--Link1--
%nprocshared=3
%mem=6GB
%Oldchk=SCZVXVGZMZRGRU-UHFFFAOYSA-N_conf_0_1.chk
%Chk=SCZVXVGZMZRGRU-UHFFFAOYSA-N_conf_0_2.chk
# TD(NStates=10, Root=1) B3LYP/6-31G** SCRF=(Solvent=water) volume pop=NPA density=current Geom=AllCheck Guess=Read



