%nprocshared=5
%mem=10GB
%Chk=NIQFAJBKEHPUAM-UHFFFAOYSA-N_conf_2_0.chk
# opt=CalcFc B3LYP/6-31G** SCRF=(Solvent=water) scf=xqc 

NIQFAJBKEHPUAM-UHFFFAOYSA-N_conf_2

0 1
N 4.248747754558053 1.4278996563365747 -1.2241077704133674
C 4.706369868405049 0.9188818113662262 0.07585522907140343
C 4.581391920023359 -0.6077810197759624 0.21044302078131236
O 3.280966098443583 -1.0451166893627013 0.6049183529524939
C 2.290198645979447 -0.9647482108550468 -0.42405939807584275
C 1.2691971126735746 0.13899981689375754 -0.1212509210138353
O 0.43895228370764067 -0.18795536185216732 1.0016760951689947
C -0.6789471432569563 -1.011159098893742 0.6744774325501932
C -1.890149733370253 -0.16277998833104368 0.2891519100165169
O -2.97706189659567 -1.0225018855594052 -0.053436474153808165
C -4.153496262157336 -0.3136529030558947 -0.4446386104480497
C -4.9414339623303345 0.2112136666593581 0.7649148533678842
N -6.226746963898683 0.8045981865327781 0.3961436150549661
H 4.37290421134437 2.4404314553604514 -1.2401087046281831
H 4.850787651135881 1.059707586098364 -1.9602577897933555
H 5.758603735520102 1.201195199417788 0.1907391420841037
H 4.13417608326551 1.4116391779928839 0.8686040773869356
H 5.258242695020169 -0.9295052304802778 1.010029082284881
H 4.902455869543433 -1.1315905843901188 -0.6981577674295306
H 1.794092107116481 -1.9396955549781185 -0.44451887292128967
H 2.7451267209486616 -0.8127258298793054 -1.4084856747850611
H 0.6497707268942216 0.34034676199163966 -1.0017763706878797
H 1.7838857391029743 1.0655309329956875 0.1456557361694429
H -0.927616325015834 -1.599766811708857 1.5647937940582954
H -0.43861763285805555 -1.734769916145931 -0.11278544756534134
H -2.1589160621581156 0.48617572172209694 1.129432467583031
H -1.6465247102422562 0.48092886532966367 -0.5633316551019472
H -4.775921558876071 -1.02802810115291 -0.9953987791136392
H -3.8993091695940225 0.49551064791358607 -1.1399234757406802
H -4.352960715561441 0.9611772544745991 1.3028923238947396
H -5.110528733059818 -0.6059126444846038 1.47530358105992
H -6.082349151408371 1.549676753887018 -0.2839109805369999
H -6.8052892032997105 0.10377633593406622 -0.06642005956622356


--Link1--
%nprocshared=5
%mem=10GB
%Oldchk=NIQFAJBKEHPUAM-UHFFFAOYSA-N_conf_2_0.chk
%Chk=NIQFAJBKEHPUAM-UHFFFAOYSA-N_conf_2_1.chk
# freq B3LYP/6-31G** SCRF=(Solvent=water) volume NMR pop=NPA density=current Geom=AllCheck Guess=Read


--Link1--
%nprocshared=5
%mem=10GB
%Oldchk=NIQFAJBKEHPUAM-UHFFFAOYSA-N_conf_2_1.chk
%Chk=NIQFAJBKEHPUAM-UHFFFAOYSA-N_conf_2_2.chk
# TD(NStates=10, Root=1) B3LYP/6-31G** SCRF=(Solvent=water) volume pop=NPA density=current Geom=AllCheck Guess=Read



