%nprocshared=5
%mem=10GB
%Chk=NIQFAJBKEHPUAM-UHFFFAOYSA-N_conf_3_0.chk
# opt=CalcFc B3LYP/6-31G** SCRF=(Solvent=water) scf=xqc 

NIQFAJBKEHPUAM-UHFFFAOYSA-N_conf_3

0 1
N 5.637353513292731 0.5836399213516156 -0.3025673652237426
C 4.951329643043314 -0.5335256730224125 0.35606938137631816
C 3.8759976669873293 -0.0462835354243637 1.3404164976874595
O 2.9515446538373014 0.844471555642932 0.703964419255882
C 1.9021227809871646 0.1795371034233614 -0.0002633618259628958
C 0.7201817882003245 -0.12496882422496307 0.922691753982186
O -0.3200606658065606 -0.831765115322354 0.24970619240749953
C -1.1769102030884113 0.01549053982038597 -0.5186853275223589
C -2.3007002434529875 -0.8166442131611288 -1.1462866348782241
O -3.147934812672816 -1.4863135626430535 -0.2141351900658259
C -3.8756767056994295 -0.6806968070315563 0.7083797759182099
C -4.995057521217534 0.1575672888750528 0.0670039570050274
N -4.595887659763144 1.5204185279883824 -0.2995534214397043
H 6.102589348857898 1.1506116531643233 0.40646098139147985
H 4.913412596551177 1.201366152333454 -0.6806901139630301
H 5.6853750627785375 -1.151641367062956 0.8828185038481844
H 4.497554307281666 -1.153244447154095 -0.42334038284424835
H 4.354610918387514 0.5182301422875023 2.148424204016581
H 3.3553480461830647 -0.8939789043275531 1.7985439402079122
H 1.5781296879720965 0.8568448911583081 -0.7968033669340635
H 2.256200093463896 -0.7294858030439458 -0.49909000497881395
H 1.0560114633483817 -0.762731796025655 1.746907263503795
H 0.3368358230963095 0.7906454048626453 1.3893035274605097
H -1.584489090712658 0.7999542802012908 0.1257878252683742
H -0.6000755452383416 0.487634465714299 -1.3203850801040853
H -2.9064692626501984 -0.20887083058313158 -1.8240752050788416
H -1.8472005069761477 -1.6076918477686837 -1.754174065511077
H -3.2013703155891613 -0.07691364286394624 1.3245571618413903
H -4.3505401575592195 -1.389130909825314 1.3973849371847507
H -5.812930985454728 0.25533621419057884 0.7893016244439245
H -5.394326191061006 -0.34748203259456656 -0.8186916218277738
H -3.9058462377185843 1.4993351135490827 -1.0445118888245264
H -4.159121289606747 1.9802860575162597 0.49777512009630104


--Link1--
%nprocshared=5
%mem=10GB
%Oldchk=NIQFAJBKEHPUAM-UHFFFAOYSA-N_conf_3_0.chk
%Chk=NIQFAJBKEHPUAM-UHFFFAOYSA-N_conf_3_1.chk
# freq B3LYP/6-31G** SCRF=(Solvent=water) volume NMR pop=NPA density=current Geom=AllCheck Guess=Read


--Link1--
%nprocshared=5
%mem=10GB
%Oldchk=NIQFAJBKEHPUAM-UHFFFAOYSA-N_conf_3_1.chk
%Chk=NIQFAJBKEHPUAM-UHFFFAOYSA-N_conf_3_2.chk
# TD(NStates=10, Root=1) B3LYP/6-31G** SCRF=(Solvent=water) volume pop=NPA density=current Geom=AllCheck Guess=Read



