%nprocshared=5
%mem=10GB
%Chk=NIQFAJBKEHPUAM-UHFFFAOYSA-N_conf_4_0.chk
# opt=CalcFc B3LYP/6-31G** SCRF=(Solvent=water) scf=xqc 

NIQFAJBKEHPUAM-UHFFFAOYSA-N_conf_4

0 1
N -6.3412985999889875 0.5733680677016665 0.2883139599387317
C -4.899937149305068 0.8200593871251851 0.22741363427517028
C -4.0653721622892265 -0.4646279738906133 0.2874144990304862
O -2.682138534078415 -0.12274711915414503 0.22115057685760825
C -1.8441333543311595 -1.2821491576818305 0.28700603614103853
C -0.38146168409520814 -0.8705948578427428 0.11386277168310935
O -0.14185554171950018 -0.5554806987596977 -1.2624294255089645
C 1.2407182075824326 -0.3630577550820484 -1.5779452268114202
C 1.861558023378279 0.8644639113983922 -0.8990718800479689
O 2.2903885108571855 0.5674668874059883 0.4366523302155362
C 3.605527085270815 0.017141766168576548 0.5183364160344662
C 4.6691126455253595 1.1245661726984642 0.5601036870430319
N 6.025861445112094 0.609110296024807 0.7375041797262443
H -6.565602530707881 0.0641776991087489 1.1417965913891819
H -6.616739711471219 -0.02735554131208079 -0.48743797935563393
H -4.612336951153573 1.4826943476930228 1.0517277341430746
H -4.665716919940431 1.3675335105219488 -0.6927520635706733
H -4.264369925554857 -0.9992945656951914 1.2237321279601827
H -4.320463964724227 -1.1173065716215178 -0.5558271814564975
H -2.133774950338939 -1.9847550557856748 -0.5025931024994824
H -1.978493823230497 -1.752645778182755 1.267027550540946
H -0.17466774985249814 0.008909992812434037 0.7307517696313868
H 0.2672409508946513 -1.7016492079518877 0.41081234569476577
H 1.788206922601972 -1.2832792055520594 -1.3488394252080205
H 1.2774073606722751 -0.21448195167466533 -2.6621456351566164
H 2.7048947039261306 1.239620822848198 -1.4880422698177214
H 1.1169682148618476 1.663789141886842 -0.8255132558057942
H 3.7906272245446515 -0.6830422823728555 -0.30438517812809956
H 3.647807320977501 -0.5576319193145526 1.4503084269373352
H 4.63421930692005 1.7164533893678304 -0.36034342975283407
H 4.438275152988346 1.8228059684720206 1.3727412669712555
H 6.2428888230946304 -0.06463562707462654 0.004685000238057201
H 6.086661653574679 0.10257390771431762 1.6204130161111139


--Link1--
%nprocshared=5
%mem=10GB
%Oldchk=NIQFAJBKEHPUAM-UHFFFAOYSA-N_conf_4_0.chk
%Chk=NIQFAJBKEHPUAM-UHFFFAOYSA-N_conf_4_1.chk
# freq B3LYP/6-31G** SCRF=(Solvent=water) volume NMR pop=NPA density=current Geom=AllCheck Guess=Read


--Link1--
%nprocshared=5
%mem=10GB
%Oldchk=NIQFAJBKEHPUAM-UHFFFAOYSA-N_conf_4_1.chk
%Chk=NIQFAJBKEHPUAM-UHFFFAOYSA-N_conf_4_2.chk
# TD(NStates=10, Root=1) B3LYP/6-31G** SCRF=(Solvent=water) volume pop=NPA density=current Geom=AllCheck Guess=Read



