%nprocshared=5
%mem=10GB
%Chk=NIQFAJBKEHPUAM-UHFFFAOYSA-N_conf_0_0.chk
# opt=CalcFc B3LYP/6-31G** SCRF=(Solvent=water) scf=xqc 

NIQFAJBKEHPUAM-UHFFFAOYSA-N_conf_0

0 1
N 5.712716275894187 1.7799938365512005 -2.0990981031494154
C 4.271891340853841 1.584591174013923 -1.9462359231204418
C 3.8996598419867894 1.0881023305764892 -0.5424897440159174
O 2.482339001422076 1.0513157996978229 -0.3520109641606335
C 1.8765024991912767 -0.11210435333945004 -0.9155066938106255
C 0.38131562772633915 -0.0920574981340365 -0.6123433650252135
O -0.22876098193877104 -1.2566880907168014 -1.1668115064490552
C -1.6380517826901908 -1.306934954787164 -0.9421213229028866
C -1.9798910041388469 -1.8607425439458374 0.44346445901684794
O -3.392280422349432 -1.9469257945264307 0.6330619809531938
C -3.985993924052743 -0.7394313737919416 1.1175115627595602
C -3.9475013748771954 -0.6912201783324746 2.6511323744839563
N -4.540714336869294 0.5349904887240557 3.181220771343385
H 6.025891765971456 2.511782360034072 -1.4614242910148023
H 5.903769221098627 2.127340297329346 -3.0388011456837534
H 3.7471663457697217 2.5235596946900207 -2.1563424279580214
H 3.932730339850603 0.8660455594481009 -2.6991815912979997
H 4.292594547639943 1.788286241789576 0.20367315875722752
H 4.3423396692356935 0.10716000961023327 -0.3309321614496239
H 2.326613792049989 -1.0165511720664784 -0.48904572680614866
H 2.029192882176842 -0.14052232683647825 -1.999540669085033
H -0.06951625971101835 0.8092921400798655 -1.044245772679573
H 0.22786866428160527 -0.05466320553241895 0.47151866313308605
H -2.065754363113218 -1.9731232480855818 -1.70006154905556
H -2.093251280503476 -0.3251268219308686 -1.1149510275113401
H -1.5089966107961859 -1.2810660240671492 1.2438981932480317
H -1.5744411844660764 -2.875445816937084 0.5253873540065707
H -3.5019194543863574 0.13963757473201535 0.6762778906828749
H -5.029545519172405 -0.7408398588390455 0.7829352469673918
H -2.9171255776812037 -0.780703013114929 3.0111405666549023
H -4.486040769760221 -1.5583592580551073 3.050328083188051
H -3.9744657719512637 1.3384633468576166 2.911425121004478
H -4.518341196688198 0.5019446789030053 4.200254298473602


--Link1--
%nprocshared=5
%mem=10GB
%Oldchk=NIQFAJBKEHPUAM-UHFFFAOYSA-N_conf_0_0.chk
%Chk=NIQFAJBKEHPUAM-UHFFFAOYSA-N_conf_0_1.chk
# freq B3LYP/6-31G** SCRF=(Solvent=water) volume NMR pop=NPA density=current Geom=AllCheck Guess=Read


--Link1--
%nprocshared=5
%mem=10GB
%Oldchk=NIQFAJBKEHPUAM-UHFFFAOYSA-N_conf_0_1.chk
%Chk=NIQFAJBKEHPUAM-UHFFFAOYSA-N_conf_0_2.chk
# TD(NStates=10, Root=1) B3LYP/6-31G** SCRF=(Solvent=water) volume pop=NPA density=current Geom=AllCheck Guess=Read



