%nprocshared=5
%mem=10GB
%Chk=NIQFAJBKEHPUAM-UHFFFAOYSA-N_conf_1_0.chk
# opt=CalcFc B3LYP/6-31G** SCRF=(Solvent=water) scf=xqc 

NIQFAJBKEHPUAM-UHFFFAOYSA-N_conf_1

0 1
N 6.2491234537362725 -0.8029821106675145 0.3934818147190256
C 4.7903153906792495 -0.6988494221663625 0.3408651234438294
C 4.261084384703933 0.6094100255161502 0.9474848339056725
O 2.835068632720614 0.6288902486477637 1.0016585367130713
C 2.2303407087071228 1.0270083971526096 -0.23381466391937758
C 0.7123630869589354 0.8851818537675503 -0.11645331203653311
O 0.36012933267869407 -0.4971106893581184 -0.23963522345921498
C -0.990965811990498 -0.7762428649254731 0.12652459111022557
C -1.9989100708995726 -0.29802648722304187 -0.9213725225889533
O -3.3302507264050383 -0.7268042380046971 -0.6330430514515378
C -3.9751994637180457 0.06704179043793781 0.36788026073579166
C -5.408233013258637 -0.4452110218647796 0.5680132175714052
N -6.183349707958385 -0.4203785348057903 -0.6777975068007079
H 6.556163991115981 -0.7775025999379882 1.3654773333773509
H 6.6713281525711805 0.004898538478349083 -0.06147880928764548
H 4.4707964473847825 -0.7893115324771454 -0.7021379702800891
H 4.347091896734609 -1.5525159495452863 0.866072436912305
H 4.637130981036438 1.485462196520883 0.40523090413508756
H 4.613137060714597 0.6931903297550088 1.9819002832017418
H 2.602427479622914 0.4062847018142713 -1.054777972716774
H 2.486775203420814 2.0755667907149147 -0.4192419728312714
H 0.23438181054478252 1.4409559093124447 -0.928852282889715
H 0.37105607385154316 1.272242608844538 0.8501478086117636
H -1.2040980493743938 -0.35941173286618167 1.116966266499769
H -1.0812719896344634 -1.8632780977018157 0.23261966031781312
H -1.7237675293559838 -0.7220032041830577 -1.893739989734138
H -1.9712330613459643 0.7901622790243893 -1.046677774980919
H -3.4320872077411515 -0.009067261267890864 1.3150123207575253
H -3.992167282896415 1.1159963149078387 0.04968925798211457
H -5.380281444636205 -1.4805626559032357 0.9244735887758767
H -5.9184715311438 0.15829766461798125 1.3252197373738377
H -5.654297009895676 -0.9678934771254804 -1.3634362355238636
H -6.184130186929429 0.5265622305113081 -1.0540488920864068


--Link1--
%nprocshared=5
%mem=10GB
%Oldchk=NIQFAJBKEHPUAM-UHFFFAOYSA-N_conf_1_0.chk
%Chk=NIQFAJBKEHPUAM-UHFFFAOYSA-N_conf_1_1.chk
# freq B3LYP/6-31G** SCRF=(Solvent=water) volume NMR pop=NPA density=current Geom=AllCheck Guess=Read


--Link1--
%nprocshared=5
%mem=10GB
%Oldchk=NIQFAJBKEHPUAM-UHFFFAOYSA-N_conf_1_1.chk
%Chk=NIQFAJBKEHPUAM-UHFFFAOYSA-N_conf_1_2.chk
# TD(NStates=10, Root=1) B3LYP/6-31G** SCRF=(Solvent=water) volume pop=NPA density=current Geom=AllCheck Guess=Read



