%nprocshared=5
%mem=10GB
%Chk=NKYXYJFTTIPZDE-UHFFFAOYSA-N_conf_3_0.chk
# opt=CalcFc B3LYP/6-31G** SCRF=(Solvent=water) scf=xqc 

NKYXYJFTTIPZDE-UHFFFAOYSA-N_conf_3

0 1
N -4.433710237902215 -1.571218524603201 -1.8542045367504234
C -3.4253494871421877 -0.9878021571137999 -1.0820995387626644
C -2.4157644233248403 -1.7776195998108728 -0.5304188499002936
C -1.3380805746568127 -1.1935731399026492 0.13799421670736645
C -1.2323472761535232 0.1983068210561947 0.20768780151344265
O -0.1987783469763172 0.8015904640795529 0.8909058933186425
C 1.0810577396989498 0.41178768543821553 0.5606393235288604
C 1.5256366101990912 0.4372425860070192 -0.7641504534499551
C 2.8389066348266834 0.0712661504218106 -1.0652671658569117
C 3.7359585122241983 -0.2647550709224672 -0.050470162603855916
N 5.008768129759693 -0.7477485694789536 -0.36667562622873373
C 3.2707451379926558 -0.32034849718039105 1.2663708798802784
C 1.9513483346112674 0.04403147768339889 1.5927273024102944
C 1.4759620156279463 0.0068997775582214415 3.0183914179685316
F 1.0182473395004743 1.2094325597280076 3.4632738457017167
F 2.4511800001697366 -0.3582461338524859 3.901367896426084
F 0.4624818394712423 -0.883421130484997 3.2124459867701556
C -2.213413223574958 1.0127714281624318 -0.36851709281195677
C -2.1002006627038474 2.5103928584935624 -0.3037001127765081
F -0.9827273557501347 2.9813509930760747 -0.9257311526609031
F -2.0599297051517946 2.99123352988832 0.9693586277953126
F -3.1447860040784605 3.155260885798024 -0.9012074584465675
C -3.2911684969291426 0.40270547088686864 -1.036613485237709
H -4.648475459112857 -2.530781934657607 -1.599769534522713
H -5.2708028404167475 -1.0040162573607851 -1.947979832104749
H -2.462837880664758 -2.8609228893364187 -0.6086211482636638
H -0.5875405803183511 -1.8327582492295988 0.5956548256435777
H 0.8595845787874613 0.7357252360504404 -1.5695101206416666
H 3.1575311033326297 0.05951697921292387 -2.104602411228332
H 5.376037698674583 -0.4031596253786486 -1.248715779725996
H 5.685707173835926 -0.6691297986340854 0.3861910742562322
H 3.9453798607369563 -0.6495997138080082 2.0554629507996647
H -4.038620154593264 1.0255863882136744 -1.5260436399506891


--Link1--
%nprocshared=5
%mem=10GB
%Oldchk=NKYXYJFTTIPZDE-UHFFFAOYSA-N_conf_3_0.chk
%Chk=NKYXYJFTTIPZDE-UHFFFAOYSA-N_conf_3_1.chk
# freq B3LYP/6-31G** SCRF=(Solvent=water) volume NMR pop=NPA density=current Geom=AllCheck Guess=Read


--Link1--
%nprocshared=5
%mem=10GB
%Oldchk=NKYXYJFTTIPZDE-UHFFFAOYSA-N_conf_3_1.chk
%Chk=NKYXYJFTTIPZDE-UHFFFAOYSA-N_conf_3_2.chk
# TD(NStates=10, Root=1) B3LYP/6-31G** SCRF=(Solvent=water) volume pop=NPA density=current Geom=AllCheck Guess=Read



