%nprocshared=5
%mem=10GB
%Chk=NKYXYJFTTIPZDE-UHFFFAOYSA-N_conf_4_0.chk
# opt=CalcFc B3LYP/6-31G** SCRF=(Solvent=water) scf=xqc 

NKYXYJFTTIPZDE-UHFFFAOYSA-N_conf_4

0 1
N 4.2958896675366995 -2.6942232940059134 -0.16215423581072835
C 3.2931673303594207 -1.7652263063290705 0.12919420576238105
C 2.0390167961463774 -2.1967712385781484 0.5630974471894933
C 0.9934912119666438 -1.288249416981653 0.7384977722602226
C 1.1808873325909035 0.060131179290377194 0.4219764086684138
O 0.17736670915190597 0.983783483568465 0.6190169473036522
C -1.046335287929594 0.7038633093447938 0.050543857445878165
C -1.1603489745524722 0.42760512293273606 -1.3145880180176974
C -2.4168780342703715 0.18803887308767275 -1.8742387522157535
C -3.5642200290059582 0.19313243274835287 -1.0799177830667481
N -4.826953524665608 0.07298224924851285 -1.665934469683538
C -3.44581217868775 0.5490522665856693 0.26657558709439366
C -2.1897848306493586 0.7957992542985083 0.8513277430316754
C -2.0778279583159076 1.1491663851943879 2.308124152383441
F -1.5126798507121009 2.3681520531549873 2.5250530654536982
F -3.2839995269820648 1.1879548586035071 2.946614692516263
F -1.3302108933687264 0.2506609414646788 3.0098046516076473
C 2.4189877644152857 0.5118813962694913 -0.04785241581042488
C 2.6241033051009373 1.9597859552791106 -0.3967349303985923
F 1.8085725144469218 2.3785648663245342 -1.4049580665679051
F 3.892453607415556 2.2363290349869107 -0.8196479964897309
F 2.4012531049843076 2.8011066834420757 0.650059935823759
C 3.4586292401495307 -0.42123315228909464 -0.21712302000132777
H 5.235626418403203 -2.3091341933024436 -0.16410308377450353
H 4.235853582686135 -3.5527012459208445 0.3772567806184068
H 1.8654234279305932 -3.2481697015391164 0.7779242323509359
H 0.03937097622555655 -1.643140945060751 1.1188919588755621
H -0.28271764986403525 0.42082055502814836 -1.9557801629683262
H -2.4910736316035345 0.003808078254918092 -2.9431181938114532
H -5.562412956494573 -0.21499012023479228 -1.0279889139747602
H -4.836967161078164 -0.4592881713462375 -2.5306834798683107
H -4.345464032514762 0.640533826842984 0.8736406862734338
H 4.413593531184461 -0.09002502036135357 -0.6227766021991569


--Link1--
%nprocshared=5
%mem=10GB
%Oldchk=NKYXYJFTTIPZDE-UHFFFAOYSA-N_conf_4_0.chk
%Chk=NKYXYJFTTIPZDE-UHFFFAOYSA-N_conf_4_1.chk
# freq B3LYP/6-31G** SCRF=(Solvent=water) volume NMR pop=NPA density=current Geom=AllCheck Guess=Read


--Link1--
%nprocshared=5
%mem=10GB
%Oldchk=NKYXYJFTTIPZDE-UHFFFAOYSA-N_conf_4_1.chk
%Chk=NKYXYJFTTIPZDE-UHFFFAOYSA-N_conf_4_2.chk
# TD(NStates=10, Root=1) B3LYP/6-31G** SCRF=(Solvent=water) volume pop=NPA density=current Geom=AllCheck Guess=Read



