%nprocshared=5
%mem=10GB
%Chk=NKYXYJFTTIPZDE-UHFFFAOYSA-N_conf_2_0.chk
# opt=CalcFc B3LYP/6-31G** SCRF=(Solvent=water) scf=xqc 

NKYXYJFTTIPZDE-UHFFFAOYSA-N_conf_2

0 1
N -4.973869844266112 0.5702472272707446 -0.9040460696085328
C -3.6692785741872624 0.2656217951966258 -0.5071537776352149
C -2.758670271668069 1.2885482007647742 -0.23925392232547144
C -1.4919585180805033 1.0004455988220724 0.2725207058825337
C -1.135684684653264 -0.3224414648154562 0.5481448235685437
O 0.0931350819747255 -0.6289626649104597 1.0913438502222128
C 1.203230237626674 -0.15891661262091697 0.42370345976121615
C 1.392346193206931 -0.4204820758277437 -0.9361680967006093
C 2.5438629889902646 0.03659126828703658 -1.579867288284123
C 3.541362415601665 0.7039257612898873 -0.8677671522115551
N 4.630568682778011 1.265832832637949 -1.5395126638446175
C 3.325571259063083 0.990098535124351 0.48321635042801775
C 2.1729140919312804 0.5386069074606858 1.152315430511529
C 1.9714284785120797 0.8291517466134687 2.6135526548947454
F 0.8773261880370963 1.6065425496875763 2.849335897963103
F 1.812794390000633 -0.29331974640442204 3.367301639581926
F 3.018800188614364 1.4989709903048511 3.177824012091312
C -2.0602230223878912 -1.3564324513692816 0.3656863537309683
C -1.7021349904552217 -2.7740552091423445 0.7146595791363525
F -1.3840202218226183 -2.9419494136283766 2.027287596499613
F -0.6369291455747601 -3.2369245536888447 0.0007355801000664742
F -2.7111184110499886 -3.6601625496231223 0.4680708818214323
C -3.3305555360086965 -1.0433180845734937 -0.15262469081130892
H -5.062143264965565 1.4449259373900532 -1.4123533691397394
H -5.46458604128028 -0.1919987700261185 -1.3611695229197092
H -3.0302977831652425 2.325516696245699 -0.42050641811078016
H -0.8023297549935189 1.8158197730972394 0.4749967920829432
H 0.6506999005524591 -0.9754531257394939 -1.5044667326726795
H 2.6582215560807216 -0.14233228255097433 -2.6460237133806555
H 4.883717518962887 0.7831517322898218 -2.3965339750602337
H 5.437692375393129 1.447029389078121 -0.9503627692453456
H 4.067427004271722 1.5714476890288849 1.0290544518364704
H -4.067298487038199 -1.8357256256689962 -0.27735243717861835


--Link1--
%nprocshared=5
%mem=10GB
%Oldchk=NKYXYJFTTIPZDE-UHFFFAOYSA-N_conf_2_0.chk
%Chk=NKYXYJFTTIPZDE-UHFFFAOYSA-N_conf_2_1.chk
# freq B3LYP/6-31G** SCRF=(Solvent=water) volume NMR pop=NPA density=current Geom=AllCheck Guess=Read


--Link1--
%nprocshared=5
%mem=10GB
%Oldchk=NKYXYJFTTIPZDE-UHFFFAOYSA-N_conf_2_1.chk
%Chk=NKYXYJFTTIPZDE-UHFFFAOYSA-N_conf_2_2.chk
# TD(NStates=10, Root=1) B3LYP/6-31G** SCRF=(Solvent=water) volume pop=NPA density=current Geom=AllCheck Guess=Read



