%nprocshared=4
%mem=8GB
%Chk=PWSKHLMYTZNYKO-UHFFFAOYSA-N_conf_1_0.chk
# opt=CalcFc B3LYP/6-31G** SCRF=(Solvent=water) scf=xqc 

PWSKHLMYTZNYKO-UHFFFAOYSA-N_conf_1

0 1
N -3.402602676777051 0.6771626661997974 0.6659215877706521
C -3.1520380528481344 0.8360099534713772 -0.7599300428965678
C -2.313730789481685 -0.3039113033351861 -1.3431133474049664
C -0.8179370567439003 -0.2597022501211039 -1.0040927973995162
C -0.4910956684641133 -0.5534786581653875 0.46139910940668394
C 0.999616205169794 -0.8116221925385186 0.7084626733742605
C 1.884066740038678 0.4043957579048559 0.42000526368414626
C 3.340943326308377 0.12248624099935705 0.7868168962256665
N 4.171170463325229 1.2879580007060105 0.504998992648449
H -3.899887901745096 -0.19641119005671212 0.8329958201001446
H -4.016875749696471 1.4237356882198544 0.9880710247310506
H -4.1175866661523814 0.865227799989682 -1.2775068209858316
H -2.658724131423674 1.7971961527559355 -0.9395625766054807
H -2.4020139556010167 -0.24989053158354477 -2.43610577641005
H -2.7349983674452214 -1.274730339600416 -1.0532846248505252
H -0.41506804718642515 0.7188292376342312 -1.2899437959446576
H -0.3130902887592246 -1.003322194094661 -1.633703875089347
H -0.8116463975325731 0.28083310387356025 1.0942584436365688
H -1.0487480356029015 -1.4400558736928657 0.7867862428799728
H 1.1256224866449487 -1.1064657968855567 1.7577398119097434
H 1.330614296608362 -1.6624250727005019 0.10042910195820912
H 1.8212062018340074 0.6668422427508304 -0.6426372636217011
H 1.5181725476434371 1.2672267718222485 0.9905155144397495
H 3.421261635120654 -0.12293084262409044 1.8511774928312585
H 3.715283647444209 -0.7352539864279553 0.21720250825825757
H 4.122465196367052 1.5117226303820996 -0.4880141109127936
H 5.145621038954986 1.0637337590277984 0.701114548266733


--Link1--
%nprocshared=4
%mem=8GB
%Oldchk=PWSKHLMYTZNYKO-UHFFFAOYSA-N_conf_1_0.chk
%Chk=PWSKHLMYTZNYKO-UHFFFAOYSA-N_conf_1_1.chk
# freq B3LYP/6-31G** SCRF=(Solvent=water) volume NMR pop=NPA density=current Geom=AllCheck Guess=Read


--Link1--
%nprocshared=4
%mem=8GB
%Oldchk=PWSKHLMYTZNYKO-UHFFFAOYSA-N_conf_1_1.chk
%Chk=PWSKHLMYTZNYKO-UHFFFAOYSA-N_conf_1_2.chk
# TD(NStates=10, Root=1) B3LYP/6-31G** SCRF=(Solvent=water) volume pop=NPA density=current Geom=AllCheck Guess=Read



