%nprocshared=4
%mem=8GB
%Chk=PWSKHLMYTZNYKO-UHFFFAOYSA-N_conf_2_0.chk
# opt=CalcFc B3LYP/6-31G** SCRF=(Solvent=water) scf=xqc 

PWSKHLMYTZNYKO-UHFFFAOYSA-N_conf_2

0 1
N 4.616631873059427 -0.4375177675854167 -0.47699108868090845
C 3.3354042567822364 -0.046147313682926384 0.10196879647656405
C 2.2616821515152474 -1.0738202658078513 -0.25438304332493533
C 0.9075440482024384 -0.7924493352785695 0.4069032975149316
C 0.2270994196448417 0.47373464250605873 -0.1202750482614447
C -1.1230983548578037 0.7624673877948047 0.5460542913820227
C -2.207427248955524 -0.2629085637465152 0.197045373010368
C -3.5658143824100015 0.0678081456939918 0.820397461499172
N -4.1208838647502 1.3089588267857732 0.29408925876799175
H 5.311548040775996 0.27953127950557355 -0.27278878546394336
H 4.535998077536176 -0.4756862920351395 -1.4923340439014845
H 3.0671693227435077 0.9450980778798892 -0.275815443479229
H 3.442724544458865 0.025742505632982346 1.1893859799392998
H 2.595361988055037 -2.0686156028699623 0.06877255497137623
H 2.1336392343780926 -1.123251294211524 -1.343131554121199
H 0.26359113428810577 -1.659061722382293 0.22066939665370774
H 1.0367328275447136 -0.7204986318088632 1.4935221157843679
H 0.09294234976832454 0.39922938443508493 -1.2061192328424544
H 0.8748268174818533 1.3388386162001904 0.06033913674806556
H -0.9936735550150324 0.8085469199859855 1.6342012180658938
H -1.4464375213497722 1.7596730371624378 0.22428485928186057
H -1.9084145870798075 -1.2536872686090537 0.5567751561574181
H -2.308502327098266 -0.3391572873036169 -0.8928175508049883
H -3.4684657531894296 0.14842942451653948 1.9084133091313522
H -4.265029697632527 -0.749955683768326 0.6136777990732443
H -4.2449168662143615 1.2283239998991624 -0.714300652441512
H -5.050231927682612 1.4563747810916394 0.6856160090865405


--Link1--
%nprocshared=4
%mem=8GB
%Oldchk=PWSKHLMYTZNYKO-UHFFFAOYSA-N_conf_2_0.chk
%Chk=PWSKHLMYTZNYKO-UHFFFAOYSA-N_conf_2_1.chk
# freq B3LYP/6-31G** SCRF=(Solvent=water) volume NMR pop=NPA density=current Geom=AllCheck Guess=Read


--Link1--
%nprocshared=4
%mem=8GB
%Oldchk=PWSKHLMYTZNYKO-UHFFFAOYSA-N_conf_2_1.chk
%Chk=PWSKHLMYTZNYKO-UHFFFAOYSA-N_conf_2_2.chk
# TD(NStates=10, Root=1) B3LYP/6-31G** SCRF=(Solvent=water) volume pop=NPA density=current Geom=AllCheck Guess=Read



