%nprocshared=4
%mem=8GB
%Chk=PWSKHLMYTZNYKO-UHFFFAOYSA-N_conf_3_0.chk
# opt=CalcFc B3LYP/6-31G** SCRF=(Solvent=water) scf=xqc 

PWSKHLMYTZNYKO-UHFFFAOYSA-N_conf_3

0 1
N 2.9586946294938277 2.0973954953186564 -0.4084464262282835
C 2.7033378408850064 0.6776711546237636 -0.6230430511194698
C 1.406304016177238 0.2642672694837683 0.07182212482687546
C 1.1151873808519628 -1.2238983421275087 -0.1422539446733051
C -0.160107358900603 -1.7006567947250397 0.5628530278429581
C -1.4041498623087336 -1.755699891471187 -0.3317178549968164
C -1.909392380359092 -0.4197377716905798 -0.8797146084972194
C -2.372704974921598 0.5426772081269288 0.21328337577171855
N -2.887920771398085 1.7697669047165596 -0.38468531457071287
H 3.0767091331125163 2.2777435894350266 0.5878381189552839
H 3.842246004770099 2.3509569214933643 -0.8492158060998174
H 2.630627889100672 0.48694315082480877 -1.6991106126960085
H 3.5458626287629578 0.09425021071176722 -0.23592600868112928
H 0.582473936801653 0.873518933123791 -0.31185384358707247
H 1.4816167595081575 0.46778718185880575 1.147601081132287
H 1.0725573435594757 -1.455875667826229 -1.2129364853475668
H 1.9606193849951736 -1.793016841161709 0.2658397715903971
H -0.35405509286175196 -1.1118100612963289 1.4659890973698702
H 0.020211649605933267 -2.7270542847571178 0.9093641521555486
H -2.214406009208161 -2.231090810956711 0.23571243499404626
H -1.197830577017618 -2.421008997068659 -1.1797442105873834
H -1.1382307276091084 0.04455025725858928 -1.5044670409951186
H -2.7542538772802807 -0.629663523035786 -1.5492639126652834
H -1.5506033904157015 0.7966143848004983 0.8887532686786623
H -3.163735372436691 0.07822660826754546 0.8115773961579305
H -3.1415090124913165 2.4240837738125167 0.35439692530717243
H -2.147549190415925 2.2230599422604103 -0.9204627949377922


--Link1--
%nprocshared=4
%mem=8GB
%Oldchk=PWSKHLMYTZNYKO-UHFFFAOYSA-N_conf_3_0.chk
%Chk=PWSKHLMYTZNYKO-UHFFFAOYSA-N_conf_3_1.chk
# freq B3LYP/6-31G** SCRF=(Solvent=water) volume NMR pop=NPA density=current Geom=AllCheck Guess=Read


--Link1--
%nprocshared=4
%mem=8GB
%Oldchk=PWSKHLMYTZNYKO-UHFFFAOYSA-N_conf_3_1.chk
%Chk=PWSKHLMYTZNYKO-UHFFFAOYSA-N_conf_3_2.chk
# TD(NStates=10, Root=1) B3LYP/6-31G** SCRF=(Solvent=water) volume pop=NPA density=current Geom=AllCheck Guess=Read



