%nprocshared=2
%mem=4GB
%Chk=WZCQRUWWHSTZEM-UHFFFAOYSA-N_conf_0_0.chk
# opt=CalcFc B3LYP/6-31G** SCRF=(Solvent=water) scf=xqc 

WZCQRUWWHSTZEM-UHFFFAOYSA-N_conf_0

0 1
N -2.3889313163890757 -0.8648464860548853 -0.6385135770297464
C -1.1851808575003908 -0.20948546898297257 -0.3444254791906755
C 0.0029583946299935166 -0.9386773948900152 -0.21487012376802256
C 1.186885398776928 -0.3313535649783981 0.2206233871910997
N 2.394941478207818 -1.0421657442157313 0.20198455380384078
C 1.1837068165642042 1.0419637000955684 0.4684131586391746
C -0.005573907968375733 1.7685048779145403 0.4048244316029055
C -1.1905676650386288 1.1348647717600109 0.02987935093747723
H -2.2663277722188884 -1.7045443449542756 -1.1958193435823317
H -3.101585084280287 -0.25127685643691067 -1.020792064328641
H 0.006295404273843697 -1.9973794443369568 -0.4572169614121762
H 2.278133932924281 -2.0414031886172492 0.33834562254475303
H 3.1044310568706828 -0.6517345269989152 0.8140854574586641
H 2.1041769353073962 1.55400144529768 0.7342795182319849
H -0.008911873357055407 2.8274836880219203 0.6472337207943927
H -2.114450940696569 1.7060485375477485 0.01196834792050217


--Link1--
%nprocshared=2
%mem=4GB
%Oldchk=WZCQRUWWHSTZEM-UHFFFAOYSA-N_conf_0_0.chk
%Chk=WZCQRUWWHSTZEM-UHFFFAOYSA-N_conf_0_1.chk
# freq B3LYP/6-31G** SCRF=(Solvent=water) volume NMR pop=NPA density=current Geom=AllCheck Guess=Read


--Link1--
%nprocshared=2
%mem=4GB
%Oldchk=WZCQRUWWHSTZEM-UHFFFAOYSA-N_conf_0_1.chk
%Chk=WZCQRUWWHSTZEM-UHFFFAOYSA-N_conf_0_2.chk
# TD(NStates=10, Root=1) B3LYP/6-31G** SCRF=(Solvent=water) volume pop=NPA density=current Geom=AllCheck Guess=Read



