%nprocshared=5
%mem=10GB
%Chk=SXJVFQLYZSNZBT-UHFFFAOYSA-N_conf_0_0.chk
# opt=CalcFc B3LYP/6-31G** SCRF=(Solvent=water) scf=xqc 

SXJVFQLYZSNZBT-UHFFFAOYSA-N_conf_0

0 1
N 5.091488300644561 0.596903731640112 1.4067344095667411
C 4.6910131621805595 0.1613543512302042 0.07440149988960403
C 3.2500469864666948 0.5615245070917827 -0.2523313774793284
C 2.218507255813376 -0.12255291462528162 0.65150404994073
C 0.7756621334121522 0.31023279432460915 0.3659954488039283
C 0.25335404799921435 -0.17202396230118916 -0.9900218709066158
C -1.187495863561707 0.2642833901782125 -1.2771544596529134
C -2.2200214871607256 -0.3880703877789076 -0.3534934634453864
C -3.646859601981547 -0.014393520664420517 -0.7701707545347617
C -4.727378941858316 -0.7111275182162081 0.05958715011930798
N -4.7237884631923555 -0.2777137858690243 1.451532694851752
H 6.075526764442519 0.37640447906998914 1.5535471417787092
H 5.011726896340587 1.610715209745353 1.4745221731954425
H 5.364616576365975 0.6106558590875553 -0.6636923189628852
H 4.8031149557541895 -0.9257527196906368 0.0010814003608121882
H 3.0597197879640743 0.2955249694816994 -1.297986895995821
H 3.1424245082090185 1.6509395760643175 -0.17852476893001554
H 2.436530624308664 0.11648720307224142 1.6992891751025707
H 2.302603811204004 -1.2115561191754696 0.5520252393942775
H 0.6997362830831783 1.4024739292104897 0.4274949267334527
H 0.14617230900170872 -0.09703205429001252 1.1650615279844934
H 0.32472882771385986 -1.2648086262763292 -1.0479335785392696
H 0.884523381003159 0.2295717013979813 -1.7903943669810483
H -1.420893361585224 -0.00019777320596634122 -2.3161333508987934
H -1.262968636239215 1.356126430892587 -1.2051341649013296
H -2.103453758480345 -1.4779477396918286 -0.3840545737675724
H -2.043773171952791 -0.06827792519441474 0.6782976258786514
H -3.7961069508448833 -0.28854645132936585 -1.8220932313129063
H -3.776449395353907 1.0735923864758778 -0.7087206488284208
H -4.597798384781485 -1.7980453445650435 0.012927515838369538
H -5.707576753343082 -0.4812418497489583 -0.3721329533248789
H -3.8518489796107738 -0.5557448211695682 1.8993205006965876
H -5.465082861961704 -0.7617570051705579 1.956650298326621


--Link1--
%nprocshared=5
%mem=10GB
%Oldchk=SXJVFQLYZSNZBT-UHFFFAOYSA-N_conf_0_0.chk
%Chk=SXJVFQLYZSNZBT-UHFFFAOYSA-N_conf_0_1.chk
# freq B3LYP/6-31G** SCRF=(Solvent=water) volume NMR pop=NPA density=current Geom=AllCheck Guess=Read


--Link1--
%nprocshared=5
%mem=10GB
%Oldchk=SXJVFQLYZSNZBT-UHFFFAOYSA-N_conf_0_1.chk
%Chk=SXJVFQLYZSNZBT-UHFFFAOYSA-N_conf_0_2.chk
# TD(NStates=10, Root=1) B3LYP/6-31G** SCRF=(Solvent=water) volume pop=NPA density=current Geom=AllCheck Guess=Read



