%nprocshared=5
%mem=10GB
%Chk=SXJVFQLYZSNZBT-UHFFFAOYSA-N_conf_4_0.chk
# opt=CalcFc B3LYP/6-31G** SCRF=(Solvent=water) scf=xqc 

SXJVFQLYZSNZBT-UHFFFAOYSA-N_conf_4

0 1
N 4.096242010132964 -1.2763626797412968 -0.2806358730489539
C 4.48295533561024 0.11684377660030192 -0.10928417616148677
C 3.633121338311202 0.8596806088038168 0.9258974958272351
C 2.153451531760853 1.0221178644821394 0.5520742326889678
C 1.262572169683695 -0.0899625221099193 1.115792781777121
C -0.2312798523033647 0.14007849315350546 0.8573719794203214
C -0.6154169035753626 0.011108484143142715 -0.6191711457914175
C -2.1071137306781025 0.24802029740151826 -0.8812460546137217
C -3.011031986969616 -0.8294532231515609 -0.2724918161252056
C -4.474793672452581 -0.6908606163435906 -0.6979308958212493
N -5.062505694013778 0.558211116343451 -0.22905384127514933
H 3.179000664136392 -1.323589320940552 -0.7218003729676254
H 4.739050742728338 -1.7251337757974468 -0.9323244530766474
H 4.430825776884559 0.630624126676265 -1.0758149374955142
H 5.529702992911112 0.14740779595062528 0.21330370771426868
H 3.7338655069458473 0.386127403093251 1.91012198532847
H 4.06305558501846 1.8649366666333922 1.0265282344411166
H 1.803322052346407 1.9759132065266365 0.9673103577761212
H 2.0505382572221276 1.0978524054756187 -0.5354089172112179
H 1.5502614137942687 -1.0651065632851249 0.7117584481572251
H 1.412330704097178 -0.14454823713509704 2.2014612687937922
H -0.7854372883706918 -0.6006278432681289 1.444748084432122
H -0.5240260012171096 1.1273355178307856 1.234346939535167
H -0.32938138860401417 -0.9798219300404107 -0.991914902941173
H -0.05594674338892747 0.7447641689146371 -1.2099751061765927
H -2.261700747321056 0.2698530135017301 -1.9672749104825022
H -2.388073670262506 1.2374871949337891 -0.5015857619224227
H -2.6540480807427307 -1.8186396685032604 -0.5844321566247261
H -2.9500050810583405 -0.8010585120104474 0.8216298280226706
H -5.048795402235841 -1.5304330150150351 -0.2905217827004148
H -4.554046541494545 -0.7394911553916014 -1.7892923183182565
H -5.0140805773676655 0.5991394969198188 0.7881953215709521
H -6.052612719527453 0.5775874253493216 -0.46959506215042174


--Link1--
%nprocshared=5
%mem=10GB
%Oldchk=SXJVFQLYZSNZBT-UHFFFAOYSA-N_conf_4_0.chk
%Chk=SXJVFQLYZSNZBT-UHFFFAOYSA-N_conf_4_1.chk
# freq B3LYP/6-31G** SCRF=(Solvent=water) volume NMR pop=NPA density=current Geom=AllCheck Guess=Read


--Link1--
%nprocshared=5
%mem=10GB
%Oldchk=SXJVFQLYZSNZBT-UHFFFAOYSA-N_conf_4_1.chk
%Chk=SXJVFQLYZSNZBT-UHFFFAOYSA-N_conf_4_2.chk
# TD(NStates=10, Root=1) B3LYP/6-31G** SCRF=(Solvent=water) volume pop=NPA density=current Geom=AllCheck Guess=Read



