%nprocshared=5
%mem=10GB
%Chk=SXJVFQLYZSNZBT-UHFFFAOYSA-N_conf_2_0.chk
# opt=CalcFc B3LYP/6-31G** SCRF=(Solvent=water) scf=xqc 

SXJVFQLYZSNZBT-UHFFFAOYSA-N_conf_2

0 1
N 4.91185340049907 1.2923094299412023 1.4334554184683717
C 4.455374948214019 0.6782993091655931 0.19227335121603412
C 2.9306964478601745 0.738418286407233 0.09996892931777902
C 2.4326477102371067 0.10438537728802806 -1.2014034160458138
C 0.9210250570584392 0.24024351440989022 -1.405950031772736
C 0.09523858996931918 -0.5380873378008381 -0.37917790800791795
C -1.4007316130737177 -0.46173985877029733 -0.6984943783774302
C -2.2258400599453254 -1.2438493326601818 0.32764565469318413
C -3.7310021887317246 -1.230214616324704 0.034443669109785406
C -4.517424485557449 -0.1268667457069391 0.7495884352897989
N -4.159782577920675 1.2217608843667687 0.3351268476259394
H 4.525406671799092 0.7869433688131547 2.2297345699356543
H 5.924707171191772 1.2023395446224194 1.502589594390039
H 4.796595941761832 -0.3620771037478712 0.15450501803166763
H 4.905620145804699 1.2084334130821388 -0.6537670912923331
H 2.5973243251321425 1.782608357864032 0.14931398536069945
H 2.4946635933522754 0.2168955609555925 0.9599760796916961
H 2.7137501558502004 -0.9554613181666722 -1.2284675534186869
H 2.935714282755159 0.5859237051936999 -2.0492530512914375
H 0.6403878341461674 1.300245903200682 -1.3805907053936002
H 0.678835805206739 -0.12606982708538705 -2.4113895223300257
H 0.41568654689058115 -1.5867941863603887 -0.36864739224365506
H 0.26661158217610587 -0.13438278700536502 0.6248642048342371
H -1.5810936317068383 -0.8724081681715735 -1.6995005264730982
H -1.7087288563823868 0.5876847774753854 -0.7231240934991545
H -2.029661249311058 -0.8736918794501936 1.3408560080836838
H -1.8868721919747506 -2.287743195618029 0.3060434687870811
H -4.14586868882324 -2.1875184299271284 0.37632989205533346
H -3.913621495687627 -1.1881673224993674 -1.0462808989102017
H -5.585056504162119 -0.2731133196418472 0.5511397862328363
H -4.3853104095080795 -0.21484712651421548 1.8337147213126468
H -4.162107479159538 1.2822411666926066 -0.6821326433967464
H -3.2090387779586753 1.4342999559280984 0.6322558937035383


--Link1--
%nprocshared=5
%mem=10GB
%Oldchk=SXJVFQLYZSNZBT-UHFFFAOYSA-N_conf_2_0.chk
%Chk=SXJVFQLYZSNZBT-UHFFFAOYSA-N_conf_2_1.chk
# freq B3LYP/6-31G** SCRF=(Solvent=water) volume NMR pop=NPA density=current Geom=AllCheck Guess=Read


--Link1--
%nprocshared=5
%mem=10GB
%Oldchk=SXJVFQLYZSNZBT-UHFFFAOYSA-N_conf_2_1.chk
%Chk=SXJVFQLYZSNZBT-UHFFFAOYSA-N_conf_2_2.chk
# TD(NStates=10, Root=1) B3LYP/6-31G** SCRF=(Solvent=water) volume pop=NPA density=current Geom=AllCheck Guess=Read



