%nprocshared=5
%mem=10GB
%Chk=SXJVFQLYZSNZBT-UHFFFAOYSA-N_conf_3_0.chk
# opt=CalcFc B3LYP/6-31G** SCRF=(Solvent=water) scf=xqc 

SXJVFQLYZSNZBT-UHFFFAOYSA-N_conf_3

0 1
N 5.081734875981517 0.8269577278523899 0.4629170879382968
C 4.270899021166977 -0.028366712645841292 1.3208023961133908
C 2.7815003640478344 0.06415151591182133 0.9802934197306215
C 2.453924012732522 -0.4592477129248549 -0.42239855584530384
C 0.971713001810761 -0.3244090870330659 -0.7892693862248389
C 0.05246190941978634 -1.1981301819219465 0.06828831303956266
C -1.3910521047776094 -1.2420468320938187 -0.44385088376104337
C -2.1033432661817004 0.11133904491857317 -0.36988859855761097
C -3.5725456346607056 -0.015589924967016562 -0.785999234003852
C -4.310793475432628 1.3245332929796825 -0.8330291886675854
N -4.431436704586776 1.9572188185764636 0.475263297483516
H 6.0538943306270765 0.7865788705016176 0.7660777643984227
H 4.788541187077954 1.7971816865439276 0.5697020462480403
H 4.420385003222249 0.27058321130574053 2.364184868809045
H 4.61291972950214 -1.0644841892456398 1.224728626155846
H 2.2310947005617208 -0.5178248022227545 1.7282023757218172
H 2.443092391691317 1.1034393106591227 1.076395587338593
H 2.7588886406855044 -1.5095173886265616 -0.5053529709757517
H 3.0345916026884145 0.09754891810655156 -1.1674826649147667
H 0.8543738070034422 -0.6072002315842694 -1.8426707693372648
H 0.6774553055509983 0.7281046733374597 -0.7077747246580365
H 0.05290344006942403 -0.843810708434029 1.1052469448481412
H 0.44128317338219736 -2.2237396563383975 0.0818960793835442
H -1.4034073470098865 -1.6117359180279327 -1.4764140121092748
H -1.9453480240153334 -1.9720612613776638 0.1591359398933603
H -2.0338666031956993 0.4981167448655853 0.6530355219895829
H -1.6065239510006588 0.8328496102008643 -1.027919378821364
H -4.091950335822658 -0.7002620451344799 -0.103682203639701
H -3.6242837761354787 -0.4689979407360264 -1.78384765521298
H -5.318394514176761 1.1619831500649955 -1.2310235109052319
H -3.804101631266252 2.011468727545391 -1.5196196023721162
H -3.5067916842307607 2.186274326727399 0.8361485675754393
H -4.83781744472896 1.2979488346188337 1.1379045033398827


--Link1--
%nprocshared=5
%mem=10GB
%Oldchk=SXJVFQLYZSNZBT-UHFFFAOYSA-N_conf_3_0.chk
%Chk=SXJVFQLYZSNZBT-UHFFFAOYSA-N_conf_3_1.chk
# freq B3LYP/6-31G** SCRF=(Solvent=water) volume NMR pop=NPA density=current Geom=AllCheck Guess=Read


--Link1--
%nprocshared=5
%mem=10GB
%Oldchk=SXJVFQLYZSNZBT-UHFFFAOYSA-N_conf_3_1.chk
%Chk=SXJVFQLYZSNZBT-UHFFFAOYSA-N_conf_3_2.chk
# TD(NStates=10, Root=1) B3LYP/6-31G** SCRF=(Solvent=water) volume pop=NPA density=current Geom=AllCheck Guess=Read



