%nprocshared=5
%mem=10GB
%Chk=SXJVFQLYZSNZBT-UHFFFAOYSA-N_conf_1_0.chk
# opt=CalcFc B3LYP/6-31G** SCRF=(Solvent=water) scf=xqc 

SXJVFQLYZSNZBT-UHFFFAOYSA-N_conf_1

0 1
N 4.855685742025055 1.6931134257602445 -0.7041360666544337
C 3.403953147812502 1.5560875380201293 -0.6670590518415671
C 3.0057665853296283 0.3413817555847262 0.1694711552635106
C 1.4839426472873898 0.1832337177306509 0.22280161351989616
C 1.0816555328889217 -1.0333884077210218 1.0594734207379204
C -0.43415290219242564 -1.1797875521157428 1.2231197204708968
C -1.1491056786498006 -1.56871919659546 -0.07530224055536729
C -2.661028639294109 -1.7303335378152251 0.11338378754172848
C -3.5207822030976836 -0.5558584057841865 -0.373278756973398
C -3.3641643535654806 0.7540764318663237 0.39995665078132286
N -2.176073809343856 1.4981099324003142 0.0013658041528333289
H 5.105198056824276 2.47134395041906 -1.3127419504280713
H 5.267253573680192 0.859608534379755 -1.1219761841323146
H 2.970559935724496 2.4666644149846584 -0.23976887212222786
H 3.0237078856398276 1.4532742241515324 -1.6893677221807957
H 3.399010703247914 0.44777538589774424 1.1884103309687726
H 3.4516842457473804 -0.5666627889290726 -0.2558314861802628
H 1.099103459242734 0.08363914826036051 -0.7979495290284672
H 1.0372103216973367 1.0880339477002803 0.6522217202728572
H 1.4960077375767433 -1.9462212539252381 0.6147044474589644
H 1.5251740406324676 -0.9397076880714428 2.0586475477985418
H -0.619613452589615 -1.961407122838917 1.9709492749384554
H -0.8482994954402286 -0.25469519093571125 1.6359025772297375
H -0.7406452465198726 -2.533803250156356 -0.40242788350277064
H -0.9393432228297157 -0.8598058953208397 -0.8818171426387329
H -2.9741678480238436 -2.6090453565725262 -0.4660450995072702
H -2.9022636172221987 -1.958206590267495 1.1586091329522734
H -4.570290497444941 -0.8665120907835463 -0.2850440317892324
H -3.3483853233381966 -0.38912742330400457 -1.4442795079441277
H -3.3350983819188444 0.5592166820426443 1.4771644326565143
H -4.239923270632594 1.3845079582693125 0.20829787249790563
H -2.2310215808476364 1.7259098269040725 -0.9903589084633664
H -2.151554092405944 2.387304876764879 0.4987874233790072


--Link1--
%nprocshared=5
%mem=10GB
%Oldchk=SXJVFQLYZSNZBT-UHFFFAOYSA-N_conf_1_0.chk
%Chk=SXJVFQLYZSNZBT-UHFFFAOYSA-N_conf_1_1.chk
# freq B3LYP/6-31G** SCRF=(Solvent=water) volume NMR pop=NPA density=current Geom=AllCheck Guess=Read


--Link1--
%nprocshared=5
%mem=10GB
%Oldchk=SXJVFQLYZSNZBT-UHFFFAOYSA-N_conf_1_1.chk
%Chk=SXJVFQLYZSNZBT-UHFFFAOYSA-N_conf_1_2.chk
# TD(NStates=10, Root=1) B3LYP/6-31G** SCRF=(Solvent=water) volume pop=NPA density=current Geom=AllCheck Guess=Read



