%nprocshared=4
%mem=8GB
%Chk=BEPGHZIEOVULBU-UHFFFAOYSA-N_conf_3_0.chk
# opt=CalcFc B3LYP/6-31G** SCRF=(Solvent=water) scf=xqc 

BEPGHZIEOVULBU-UHFFFAOYSA-N_conf_3

0 1
C 3.970850036502801 -0.6747420514161425 0.6485174692194648
C 3.5164820854515844 0.10820285951808442 -0.5750146528085264
N 2.07037805820007 0.04649868720359835 -0.792290846212866
C 1.3125130015157551 0.8027274492388202 0.2063979464945195
C -0.18353481408095404 0.8416208004254354 -0.1299509034918381
C -0.8310617863256862 -0.5468155535369633 -0.10931529706275961
N -2.2647182568218907 -0.5080775798619159 -0.42769302262406605
C -3.074540158951446 -0.0035948772505747847 0.6811552021166342
C -4.550610978750591 -0.0996852252903208 0.3224382441694531
H 5.064776281576831 -0.6973063785891246 0.691959806321483
H 3.6160135078883595 -1.7100488964409906 0.6094961423308746
H 3.6137087432640453 -0.2212330230700679 1.5779716165389712
H 3.8585023501027322 1.1477865248952759 -0.5122011872021963
H 4.003836632257353 -0.32829273093436445 -1.4545930271853675
H 1.8632391967509625 0.4266150122299606 -1.7171667596099025
H 1.4361504859380203 0.36028501160802145 1.2008049586515008
H 1.6800017689896707 1.8350618782928494 0.2508326147246369
H -0.6692538335844047 1.4959949953676472 0.6030087210823484
H -0.3305929497464 1.3066822724982585 -1.11331557118388
H -0.6630840476957729 -1.0429967345239126 0.8542354893179783
H -0.35076280368642637 -1.1734563265583569 -0.8697237757391371
H -2.567835152544421 -1.4569783989387957 -0.6498234603627466
H -2.891413285259096 -0.5875255587478672 1.590385664628066
H -2.837418063093972 1.043698203213032 0.8927753626526481
H -4.8483186826741 -1.1374077296211527 0.13752656448153425
H -5.163616739011332 0.28452539364008844 1.1441437474373246
H -4.779690596211587 0.4884619766494581 -0.5727139955781807


--Link1--
%nprocshared=4
%mem=8GB
%Oldchk=BEPGHZIEOVULBU-UHFFFAOYSA-N_conf_3_0.chk
%Chk=BEPGHZIEOVULBU-UHFFFAOYSA-N_conf_3_1.chk
# freq B3LYP/6-31G** SCRF=(Solvent=water) volume NMR pop=NPA density=current Geom=AllCheck Guess=Read


--Link1--
%nprocshared=4
%mem=8GB
%Oldchk=BEPGHZIEOVULBU-UHFFFAOYSA-N_conf_3_1.chk
%Chk=BEPGHZIEOVULBU-UHFFFAOYSA-N_conf_3_2.chk
# TD(NStates=10, Root=1) B3LYP/6-31G** SCRF=(Solvent=water) volume pop=NPA density=current Geom=AllCheck Guess=Read



