%nprocshared=4
%mem=8GB
%Chk=BEPGHZIEOVULBU-UHFFFAOYSA-N_conf_4_0.chk
# opt=CalcFc B3LYP/6-31G** SCRF=(Solvent=water) scf=xqc 

BEPGHZIEOVULBU-UHFFFAOYSA-N_conf_4

0 1
C -4.1833398794401715 0.15086210604503797 1.13041611871031
C -3.6462184619497413 -0.02234194464375563 -0.2835966440886093
N -2.2931110267455366 0.5021923820321935 -0.458356089487301
C -1.266722189605239 -0.35381283147407405 0.1361152367478827
C 0.1199046969684859 0.24342111803253827 -0.12379313583496013
C 1.2152292633741388 -0.6586829211353774 0.453908879430473
N 2.5574991213136773 -0.0756581051330094 0.36814159604154
C 3.05228327630589 0.009028784467674002 -1.0062436015735372
C 4.498131107471953 0.4849902522926315 -1.002835072750737
H -5.22891378426429 -0.17129460788692671 1.1745390370009288
H -3.6219400445202714 -0.4471907218408955 1.8544095088479033
H -4.143142568855523 1.1994864060370698 1.4434829321408207
H -4.303884330279867 0.5248798416685251 -0.9686578155267528
H -3.6980884516362345 -1.0750051581768596 -0.5850150177288953
H -2.2302955955934753 1.4416124208667283 -0.06607436474074067
H -1.3168378885881196 -1.3562875298129629 -0.3050556628998516
H -1.4187926973895217 -0.4496962022630575 1.2167336569622247
H 0.1844858310856157 1.2402364378109085 0.3312233278190413
H 0.2617063567180114 0.36754763772629967 -1.2040215018874236
H 1.0023335982708137 -0.8279026816927204 1.5164157552103377
H 1.195990251556372 -1.644148402434414 -0.027393022483474316
H 3.198719832381622 -0.6512771911401256 0.9145940433695952
H 3.001663300034842 -0.9698359503274442 -1.4965605382571372
H 2.457198289609268 0.7181839273710519 -1.5903082027840887
H 5.1452307263477834 -0.21246474511328003 -0.4601611662063699
H 4.871883004288795 0.5611723821646166 -2.029040239909887
H 4.589028263139808 1.4719852965597817 -0.5367172665757393


--Link1--
%nprocshared=4
%mem=8GB
%Oldchk=BEPGHZIEOVULBU-UHFFFAOYSA-N_conf_4_0.chk
%Chk=BEPGHZIEOVULBU-UHFFFAOYSA-N_conf_4_1.chk
# freq B3LYP/6-31G** SCRF=(Solvent=water) volume NMR pop=NPA density=current Geom=AllCheck Guess=Read


--Link1--
%nprocshared=4
%mem=8GB
%Oldchk=BEPGHZIEOVULBU-UHFFFAOYSA-N_conf_4_1.chk
%Chk=BEPGHZIEOVULBU-UHFFFAOYSA-N_conf_4_2.chk
# TD(NStates=10, Root=1) B3LYP/6-31G** SCRF=(Solvent=water) volume pop=NPA density=current Geom=AllCheck Guess=Read



