%nprocshared=4
%mem=8GB
%Chk=BEPGHZIEOVULBU-UHFFFAOYSA-N_conf_1_0.chk
# opt=CalcFc B3LYP/6-31G** SCRF=(Solvent=water) scf=xqc 

BEPGHZIEOVULBU-UHFFFAOYSA-N_conf_1

0 1
C 3.3535077725564166 1.1860957108788253 0.5898066894527249
C 3.0184992603514225 0.2877402764660601 -0.5922942017131306
N 2.630038744059882 -1.069557109310297 -0.21042935095429843
C 1.4094101205046108 -1.17049679080049 0.5927419742559584
C 0.13584479040785302 -0.7492292687298904 -0.14844642123453944
C -1.1013501183406722 -0.9956925754694351 0.7220100442466422
N -2.360461547224762 -0.7155293491958076 0.025829076377666304
C -2.5881677725580516 0.7147277739458465 -0.18181271299390975
C -3.9675737963869855 0.9319951519329989 -0.787518892018965
H 4.095970060793885 0.7183707521863236 1.244858739620087
H 3.7723542092225366 2.13249400001149 0.23194621909068946
H 2.465835736582844 1.4238376669257928 1.1837347747578646
H 2.2549677311185947 0.7579550692389884 -1.2209159706501915
H 3.916595682743711 0.20643487894513152 -1.2159581290578811
H 2.5135546219947837 -1.6261798105832685 -1.0579857053146904
H 1.5129087929982388 -0.6110854330663613 1.5290116510422782
H 1.3108537741327444 -2.22199540704142 0.8893453084725238
H 0.19729599580772392 0.31163466109515786 -0.41187520998114385
H 0.04754482880951053 -1.316504976365325 -1.0835720603300418
H -1.117512156298299 -2.0536714902781923 1.0106916584674734
H -1.0409199470255517 -0.4202884246620903 1.6538572315541626
H -3.129973394834283 -1.0939565323590248 0.5793463736300278
H -2.527823496567068 1.2576543706157228 0.7683167040262832
H -1.8415972694190235 1.132505637251701 -0.8645586613800443
H -4.062219275212841 0.41952329189045134 -1.7508990580058195
H -4.141201281356493 1.9998398272188063 -0.9553064227295844
H -4.756382066860626 0.563378099258524 -0.1230036605930897


--Link1--
%nprocshared=4
%mem=8GB
%Oldchk=BEPGHZIEOVULBU-UHFFFAOYSA-N_conf_1_0.chk
%Chk=BEPGHZIEOVULBU-UHFFFAOYSA-N_conf_1_1.chk
# freq B3LYP/6-31G** SCRF=(Solvent=water) volume NMR pop=NPA density=current Geom=AllCheck Guess=Read


--Link1--
%nprocshared=4
%mem=8GB
%Oldchk=BEPGHZIEOVULBU-UHFFFAOYSA-N_conf_1_1.chk
%Chk=BEPGHZIEOVULBU-UHFFFAOYSA-N_conf_1_2.chk
# TD(NStates=10, Root=1) B3LYP/6-31G** SCRF=(Solvent=water) volume pop=NPA density=current Geom=AllCheck Guess=Read



