%nprocshared=3
%mem=6GB
%Chk=AGAHETWGCFCMDK-UHFFFAOYSA-N_conf_1_0.chk
# opt=CalcFc B3LYP/6-31G** SCRF=(Solvent=water) scf=xqc 

AGAHETWGCFCMDK-UHFFFAOYSA-N_conf_1

0 1
N -2.9898945896776907 0.5961145169140629 -0.7682926143754151
C -1.6041459033211107 0.5608738649918584 -0.5305532642644233
C -0.7629686250551108 1.4839661766816772 -1.1491503644222192
C 0.6207954548489388 1.385060168867822 -0.992045012903098
C 1.1805073286579628 0.3540955666958253 -0.23385761750323103
O 2.545642843171452 0.3896991537346879 -0.14567895368195022
C 3.1742976181540548 -0.6771046398615035 0.5528991466886591
C 0.3429489133149468 -0.5931091646884182 0.3597984714770238
C -1.0442354787439196 -0.5272731231381853 0.17091250512944903
N -1.9042122898023213 -1.3996515301315957 0.8902147200318712
H -3.382683077392818 1.5280168255976743 -0.8117974132370874
H -3.4742449489922813 -0.03877679150592683 -0.13591921383511277
H -1.1763783427599077 2.2806484747575526 -1.7601742025225622
H 1.268713061542237 2.1160674330025664 -1.4693166746403903
H 2.8901762168396132 -0.6762616366531871 1.6103318193450444
H 4.255966471133639 -0.5204460654667683 0.49916925217716773
H 2.953919271639843 -1.6420147071344795 0.08428685311129101
H 0.7470678850381296 -1.3928148106894729 0.9687253070696606
H -1.4452964778110347 -2.2802514027782412 1.106263641211503
H -2.195975330784089 -0.946838309195848 1.7541836151436825


--Link1--
%nprocshared=3
%mem=6GB
%Oldchk=AGAHETWGCFCMDK-UHFFFAOYSA-N_conf_1_0.chk
%Chk=AGAHETWGCFCMDK-UHFFFAOYSA-N_conf_1_1.chk
# freq B3LYP/6-31G** SCRF=(Solvent=water) volume NMR pop=NPA density=current Geom=AllCheck Guess=Read


--Link1--
%nprocshared=3
%mem=6GB
%Oldchk=AGAHETWGCFCMDK-UHFFFAOYSA-N_conf_1_1.chk
%Chk=AGAHETWGCFCMDK-UHFFFAOYSA-N_conf_1_2.chk
# TD(NStates=10, Root=1) B3LYP/6-31G** SCRF=(Solvent=water) volume pop=NPA density=current Geom=AllCheck Guess=Read



