%nprocshared=3
%mem=6GB
%Chk=AGAHETWGCFCMDK-UHFFFAOYSA-N_conf_2_0.chk
# opt=CalcFc B3LYP/6-31G** SCRF=(Solvent=water) scf=xqc 

AGAHETWGCFCMDK-UHFFFAOYSA-N_conf_2

0 1
N -2.9395943931077992 -1.021984962045777 -0.20771764160474399
C -1.5535208943841992 -0.788367207613871 -0.059566020522597844
C -0.7466630284692264 -1.7268819354480005 0.5822678842658023
C 0.6162719201226874 -1.476527349673916 0.753690906266232
C 1.1822828132307581 -0.2799983713048259 0.30838815469988606
O 2.533174184597824 -0.18201315980249808 0.5030667690140032
C 3.1674329010965 0.9975689203351856 0.025468316546903656
C 0.3617082656820839 0.692473687034462 -0.26663209514568037
C -1.0179132936064215 0.47793982859974027 -0.3745364793723185
N -1.84352389203834 1.4523730361499996 -0.9867755931077412
H -3.2744027109111125 -0.5415959418164186 -1.04149781266906
H -3.1582227979179716 -2.012796700808438 -0.2496712810860779
H -1.16180138881514 -2.668102082350424 0.9294352272240191
H 1.2451608281614945 -2.2262989299814917 1.2272863056499697
H 2.7988504472440905 1.8838843447454738 0.5523037302983169
H 4.238146855740964 0.9087562607903119 0.23316112546112003
H 3.0460614086969615 1.1014014526807008 -1.0578932964773713
H 0.7669406484964078 1.6350333135431838 -0.6148360095397383
H -2.7837140549700643 1.3827807461689345 -0.5991750902881819
H -1.4766738188492459 2.3923550507972875 -0.8747780869710058


--Link1--
%nprocshared=3
%mem=6GB
%Oldchk=AGAHETWGCFCMDK-UHFFFAOYSA-N_conf_2_0.chk
%Chk=AGAHETWGCFCMDK-UHFFFAOYSA-N_conf_2_1.chk
# freq B3LYP/6-31G** SCRF=(Solvent=water) volume NMR pop=NPA density=current Geom=AllCheck Guess=Read


--Link1--
%nprocshared=3
%mem=6GB
%Oldchk=AGAHETWGCFCMDK-UHFFFAOYSA-N_conf_2_1.chk
%Chk=AGAHETWGCFCMDK-UHFFFAOYSA-N_conf_2_2.chk
# TD(NStates=10, Root=1) B3LYP/6-31G** SCRF=(Solvent=water) volume pop=NPA density=current Geom=AllCheck Guess=Read



