%nprocshared=3
%mem=6GB
%Chk=IUNMPGNGSSIWFP-UHFFFAOYSA-N_conf_1_0.chk
# opt=CalcFc B3LYP/6-31G** SCRF=(Solvent=water) scf=xqc 

IUNMPGNGSSIWFP-UHFFFAOYSA-N_conf_1

0 1
N 3.4052358715757873 -0.6281161988063524 -0.3658864801992299
C 2.3090090585769665 0.23228264423347303 0.06579904056062903
C 0.9626021781859813 -0.3433355115137288 -0.37580972155463266
C -0.18941161981840388 0.5643824565410166 0.07894908334511035
N -1.5071351956093755 0.12902398003657137 -0.4163618953860741
C -2.5105564950917225 1.1624994030326958 -0.14638297383853185
C -1.9329417898885055 -1.1386500898773275 0.17946908556206614
H 4.286569425690219 -0.2632051365498404 -0.0075633841575360496
H 3.293820421821381 -1.5586305503517637 0.03444827919055655
H 2.3368435417971725 0.3316316124016252 1.1565787942513768
H 2.4518781439700628 1.2298630891121174 -0.36320467880124324
H 0.9432489895666899 -0.44440108926416627 -1.468489202058121
H 0.8476932499599074 -1.3476624480764658 0.04807608117582442
H -0.1938595886428273 0.6407224165107658 1.1743703726508148
H 0.015104701090485005 1.5715047282058328 -0.3079617910291681
H -2.628010241833016 1.3538073799417885 0.9264961547605759
H -3.484867461792604 0.8706317895361617 -0.5543344129831657
H -2.2381105045070546 2.1032691026715638 -0.6377702577033099
H -1.9647946543210189 -1.0906560078818808 1.2739048883373882
H -2.9309973140052974 -1.4160595115901062 -0.1792993328010244
H -1.2713207167249063 -1.9589020583119285 -0.11502764932230412


--Link1--
%nprocshared=3
%mem=6GB
%Oldchk=IUNMPGNGSSIWFP-UHFFFAOYSA-N_conf_1_0.chk
%Chk=IUNMPGNGSSIWFP-UHFFFAOYSA-N_conf_1_1.chk
# freq B3LYP/6-31G** SCRF=(Solvent=water) volume NMR pop=NPA density=current Geom=AllCheck Guess=Read


--Link1--
%nprocshared=3
%mem=6GB
%Oldchk=IUNMPGNGSSIWFP-UHFFFAOYSA-N_conf_1_1.chk
%Chk=IUNMPGNGSSIWFP-UHFFFAOYSA-N_conf_1_2.chk
# TD(NStates=10, Root=1) B3LYP/6-31G** SCRF=(Solvent=water) volume pop=NPA density=current Geom=AllCheck Guess=Read



