%nprocshared=5
%mem=10GB
%Chk=QYIMZXITLDTULQ-UHFFFAOYSA-N_conf_1_0.chk
# opt=CalcFc B3LYP/6-31G** SCRF=(Solvent=water) scf=xqc 

QYIMZXITLDTULQ-UHFFFAOYSA-N_conf_1

0 1
N -4.976483510205097 0.30720516099099454 -0.020088998193345333
C -3.5768403716077994 0.28185809146487023 -0.02831276735430467
C -2.8557390386538244 0.9872177558805463 0.9322551450443567
C -1.4649828168744976 0.8718628158248486 1.0038386743950403
C -0.7615637759110437 0.016346748969370117 0.13985875643044357
C 0.7032255589961641 -0.0761778657228012 0.26188827995972574
C 1.2588074541430399 -1.0709641143052204 1.083414153941104
C 2.64258868420733 -1.1959186703526457 1.2316967054181585
C 3.5062354618514293 -0.3032383060113509 0.601222095839905
N 4.890894312581771 -0.5016859513244192 0.6569758691031519
C 2.9654977691194393 0.6525030729764763 -0.2628455726390848
C 1.5743735389302915 0.7941665805531531 -0.42648424420933173
C 1.050125030979969 1.864273904972833 -1.346556803989946
C -1.4919795959803357 -0.7468097325629571 -0.7952569341008612
C -0.810874487555383 -1.7219593379234626 -1.7184229398193047
C -2.8931647393745097 -0.6198209472515429 -0.8479710904170067
H -5.367067699188842 1.1693061602205008 0.3465741165535778
H -5.394808861324069 0.04044231478291798 -0.905575282310314
H -3.3680927044716555 1.6352147253320506 1.6377307179431588
H -0.9252429057114612 1.4478462862018862 1.7530829290539243
H 0.6064359824416631 -1.7686919000251038 1.605245750527443
H 3.036271968132407 -1.9988199653318717 1.8485338930293507
H 5.431543328372499 0.3333012303802086 0.45532292310508093
H 5.2024510926018435 -0.9674641329729663 1.5033360747619082
H 3.636866698216143 1.3020267715130176 -0.8198603505382193
H 1.86575698574265 2.4340405103186598 -1.8046142330002095
H 0.46639619699077345 1.4197974275602019 -2.1587287043974026
H 0.4277098352580919 2.5738064207628484 -0.7923493740125648
H -1.5147775757503585 -2.1446019435895045 -2.443453319372895
H -0.384924772129798 -2.552137840554989 -1.146346566651479
H -0.020281683334832372 -1.2265372440592506 -2.2905868086435297
H -3.4583553604918778 -1.2363880267172895 -1.543222828292844


--Link1--
%nprocshared=5
%mem=10GB
%Oldchk=QYIMZXITLDTULQ-UHFFFAOYSA-N_conf_1_0.chk
%Chk=QYIMZXITLDTULQ-UHFFFAOYSA-N_conf_1_1.chk
# freq B3LYP/6-31G** SCRF=(Solvent=water) volume NMR pop=NPA density=current Geom=AllCheck Guess=Read


--Link1--
%nprocshared=5
%mem=10GB
%Oldchk=QYIMZXITLDTULQ-UHFFFAOYSA-N_conf_1_1.chk
%Chk=QYIMZXITLDTULQ-UHFFFAOYSA-N_conf_1_2.chk
# TD(NStates=10, Root=1) B3LYP/6-31G** SCRF=(Solvent=water) volume pop=NPA density=current Geom=AllCheck Guess=Read



