%nprocshared=5
%mem=10GB
%Chk=QYIMZXITLDTULQ-UHFFFAOYSA-N_conf_3_0.chk
# opt=CalcFc B3LYP/6-31G** SCRF=(Solvent=water) scf=xqc 

QYIMZXITLDTULQ-UHFFFAOYSA-N_conf_3

0 1
N 4.7592682331650025 0.03257542968691571 1.461582353351426
C 3.409216184039892 -0.13176407058977785 1.129825113820584
C 2.4207476798494656 0.0609698651275489 2.0921001337124863
C 1.068849983929116 0.013012279747096593 1.741903004444479
C 0.6700859966685739 -0.18320951781609113 0.4093510679357163
C -0.7674889228493589 -0.22934232745778801 0.09226686175794487
C -1.4140548173397085 -1.4751259520191609 0.03588710900961849
C -2.7768861680341024 -1.5693803305899754 -0.25800907694290526
C -3.539764181901177 -0.42116271348548806 -0.45751174745633716
N -4.8749682821717375 -0.522597964998293 -0.8657505216352313
C -2.8941192768889783 0.8179860381757076 -0.4603304715922214
C -1.5218407409372139 0.9342146572104315 -0.16787693291951492
C -0.8901093246167217 2.300877081117179 -0.1509411759279801
C 1.6669998362283356 -0.3193927068044709 -0.5796895609304175
C 1.3138807676521007 -0.505995068421831 -2.031453534196624
C 3.0235084608556897 -0.26995371150810704 -0.20602297067640643
H 5.39671756496155 -0.42049837733539125 0.814564130034498
H 4.971491910782499 -0.18755770776375005 2.429436990423957
H 2.690965546261929 0.24842547384880975 3.127437428151556
H 0.31738627409116943 0.14459175895531265 2.5180637673300024
H -0.8469788009372169 -2.3876972571898527 0.20931967542838684
H -3.234854554069308 -2.5520662616303658 -0.3264550196132679
H -5.338151090214813 -1.3654255749890885 -0.5411800624511528
H -5.422202714131112 0.31256508511154824 -0.6832942789707454
H -3.467334455835807 1.7126571580748031 -0.6925339142040088
H -0.5017555262692687 2.529677108928641 0.8464264314451246
H -1.6154786216974566 3.080829342614526 -0.4063747268422328
H -0.0789643786726436 2.3589789965510826 -0.8833551657733671
H 2.210545540423233 -0.5603818050014349 -2.658167551530654
H 0.7593248723005803 -1.438968655210697 -2.172666979130708
H 0.7151398950243094 0.33570841569430876 -2.393133018636303
H 3.790823110333346 -0.3425486880318184 -0.9734173574155054


--Link1--
%nprocshared=5
%mem=10GB
%Oldchk=QYIMZXITLDTULQ-UHFFFAOYSA-N_conf_3_0.chk
%Chk=QYIMZXITLDTULQ-UHFFFAOYSA-N_conf_3_1.chk
# freq B3LYP/6-31G** SCRF=(Solvent=water) volume NMR pop=NPA density=current Geom=AllCheck Guess=Read


--Link1--
%nprocshared=5
%mem=10GB
%Oldchk=QYIMZXITLDTULQ-UHFFFAOYSA-N_conf_3_1.chk
%Chk=QYIMZXITLDTULQ-UHFFFAOYSA-N_conf_3_2.chk
# TD(NStates=10, Root=1) B3LYP/6-31G** SCRF=(Solvent=water) volume pop=NPA density=current Geom=AllCheck Guess=Read



