%nprocshared=3
%mem=6GB
%Chk=GEQHKFFSPGPGLN-OLQVQODUSA-N_conf_1_0.chk
# opt=CalcFc B3LYP/6-31G** SCRF=(Solvent=water) scf=xqc 

GEQHKFFSPGPGLN-OLQVQODUSA-N_conf_1

0 1
N 2.1558936409003104 -0.40616954254450044 0.8692255741075989
C 1.4512977049124167 -0.3368827025898787 -0.41365962959567426
C 0.19071484864348465 -1.2164366923993506 -0.4223941899858904
C -0.9436082033084431 -0.6458956219017515 0.4398484431412224
N -2.1336778038445985 -1.490027139647646 0.31578375484490195
C -1.2684988864610003 0.7988488927788149 0.04356880810623046
C -0.02725977048033078 1.6873470723583341 0.09460250902673599
C 1.1056458525016515 1.1181048336900343 -0.7588505248873632
H 1.5636696474546303 -0.07347381802727374 1.6276766553108686
H 2.366896966418203 -1.3801490687312825 1.0879939325938042
H 2.1421754175940544 -0.7152042960262807 -1.1764564412676601
H -0.152582547746727 -1.3106554017727843 -1.4622887120551697
H 0.44095191146163915 -2.2331372751443723 -0.0913995833485584
H -0.6381271655961108 -0.6647920375788858 1.4926086960148137
H -2.893317967694988 -1.0940913239236658 0.8691424943984721
H -2.4620554844768985 -1.4877541621488615 -0.6496781363628976
H -2.0345243509299964 1.211403911483669 0.7116278765743881
H -1.6856268376430767 0.8271911327977045 -0.9718662554544363
H 0.3037587221299868 1.798535773085116 1.133849183569373
H -0.28288808552664185 2.691713807309612 -0.2622937912217191
H 1.9935443289805035 1.7552905145826248 -0.6624946420540314
H 0.80761806271202 1.16623314435066 -1.8145460214550178


--Link1--
%nprocshared=3
%mem=6GB
%Oldchk=GEQHKFFSPGPGLN-OLQVQODUSA-N_conf_1_0.chk
%Chk=GEQHKFFSPGPGLN-OLQVQODUSA-N_conf_1_1.chk
# freq B3LYP/6-31G** SCRF=(Solvent=water) volume NMR pop=NPA density=current Geom=AllCheck Guess=Read


--Link1--
%nprocshared=3
%mem=6GB
%Oldchk=GEQHKFFSPGPGLN-OLQVQODUSA-N_conf_1_1.chk
%Chk=GEQHKFFSPGPGLN-OLQVQODUSA-N_conf_1_2.chk
# TD(NStates=10, Root=1) B3LYP/6-31G** SCRF=(Solvent=water) volume pop=NPA density=current Geom=AllCheck Guess=Read



