%nprocshared=3
%mem=6GB
%Chk=GEQHKFFSPGPGLN-OLQVQODUSA-N_conf_0_0.chk
# opt=CalcFc B3LYP/6-31G** SCRF=(Solvent=water) scf=xqc 

GEQHKFFSPGPGLN-OLQVQODUSA-N_conf_0

0 1
N 1.6793734004211502 1.0417292641402962 -0.8152173011040497
C 1.2477264368181689 0.6110105828349336 0.5175981693826043
C -0.15022713010054267 1.1703405879197102 0.8343607626292002
C -1.2906055866150932 0.49575818413884637 0.04993979823992116
N -1.248184250906564 0.8543014067904877 -1.373273402148763
C -1.2248553877309043 -1.0288799327463445 0.20527557936889254
C 0.1475247681435642 -1.6024811746590684 -0.14894621835875824
C 1.2595233362702811 -0.919678707981822 0.6469334694330662
H 0.8947917417904329 0.884222787404743 -1.4617813703195675
H 2.4362266632204763 0.44800119675096356 -1.1480413873381177
H 1.96364148249986 1.0245934225946374 1.2372162170821437
H -0.3411609431207634 1.0250083136222847 1.9065025755292277
H -0.16986594377791428 2.256461137167495 0.6732878181434865
H -2.246555626684459 0.8510801307079844 0.452923313115046
H -2.082515930584677 0.49546542543566596 -1.8375619253588116
H -1.2894358121134997 1.871037173020858 -1.461685216604166
H -1.4580750993979181 -1.287801424600909 1.2463936615742253
H -1.9941016440655324 -1.5115554515826504 -0.410240874947242
H 0.1568726946884933 -2.677733277781055 0.06421670152607709
H 0.33491001470727 -1.4963992469258196 -1.2238077088825734
H 1.1430142127362024 -1.181260521166165 1.7069785010313627
H 2.231978603801724 -1.3232198750850208 0.3389288380066686


--Link1--
%nprocshared=3
%mem=6GB
%Oldchk=GEQHKFFSPGPGLN-OLQVQODUSA-N_conf_0_0.chk
%Chk=GEQHKFFSPGPGLN-OLQVQODUSA-N_conf_0_1.chk
# freq B3LYP/6-31G** SCRF=(Solvent=water) volume NMR pop=NPA density=current Geom=AllCheck Guess=Read


--Link1--
%nprocshared=3
%mem=6GB
%Oldchk=GEQHKFFSPGPGLN-OLQVQODUSA-N_conf_0_1.chk
%Chk=GEQHKFFSPGPGLN-OLQVQODUSA-N_conf_0_2.chk
# TD(NStates=10, Root=1) B3LYP/6-31G** SCRF=(Solvent=water) volume pop=NPA density=current Geom=AllCheck Guess=Read



