%nprocshared=8
%mem=16GB
%Chk=LALHUWOVOZGIAW-WGKKAQPQSA-N_conf_3_0.chk
# opt=CalcFc B3LYP/6-31G** SCRF=(Solvent=water) scf=xqc 

LALHUWOVOZGIAW-WGKKAQPQSA-N_conf_3

0 1
N -5.901742470251037 0.9401506589584298 2.9069001002014954
C -4.770686035510679 0.8386440766137935 2.089762050844247
C -3.5132966397951795 0.6204157833254897 2.647577238690731
C -2.3905187296160424 0.4009921594840653 1.8368588726437534
C -2.497623617057679 0.3519906187923747 0.4387405568275283
C -1.2902679081405715 0.11220837227644766 -0.48433083086432366
C -1.4876869567925446 -1.2084890775073744 -1.2770648094390082
C 0.06834658624482694 0.0015190459003857307 0.27502162561098026
C 1.2759429896118757 -0.22833360310235853 -0.6808098857442596
C 2.5845653854177177 -0.27130633739200083 0.12732713085868302
C 3.4447029477085542 -1.379695287688514 0.12566369526525092
C 4.629197161831963 -1.3853637208295255 0.8759522939668113
C 4.972850031635211 -0.3044312436434781 1.6842429102993464
N 6.210309016258316 -0.27077299935410987 2.3360026733674326
C 4.162922781720864 0.8270020463122227 1.647288438315475
C 2.978754124733365 0.836979343670782 0.8995942841410328
C 0.9889706998386685 -1.5358992067636146 -1.4744953041868025
C -0.32797463903489904 -1.4393680364218306 -2.2559953206643697
C -0.24780172340090223 -0.269152316967443 -3.2439119362804036
C 0.002350743371114481 1.0381949696197676 -2.4824959581056087
C 1.3227497746783619 0.9372167161667065 -1.7063295137457732
C -1.1529201063125696 1.285041621438789 -1.4985923730340465
C -3.785962909241934 0.5087406736355663 -0.10490195165060573
C -4.9046972525207995 0.7276059340057244 0.708750778055343
H -5.706683166893059 1.3214267876773826 3.827054118810209
H -6.688665419949724 1.3981110239785317 2.4585018053628866
H -3.388196451626509 0.618724819211235 3.7271737806127065
H -1.439023547800549 0.2570543030467046 2.3406525860295244
H -1.5638719604195443 -2.0571247923699114 -0.5839486241019852
H -2.426033693807494 -1.1931189547177328 -1.8455959781673748
H 0.030574245819545005 -0.8252672618871963 0.9988736835851242
H 0.22239416365789638 0.9181528557684687 0.8598536299975781
H 3.230647271735641 -2.2654024146520726 -0.46534866537460934
H 5.2811664585186335 -2.2530702424723845 0.8193026722686241
H 6.240461624657642 0.3723762108809416 3.1205477468946556
H 6.569427769132907 -1.1891593381281935 2.576258620942393
H 4.442004536401839 1.718406890299031 2.2023739536818443
H 2.3733252954783786 1.74030748806327 0.9233229169330034
H 0.9341951603778285 -2.3949192433031765 -0.792466416482421
H 1.8036109402574247 -1.741506127757332 -2.181714817150113
H -0.49562527537754697 -2.3721576751639746 -2.806572058030249
H 0.5590144857076673 -0.4424827598139059 -3.9666411377731716
H -1.179171667217975 -0.19768747605812198 -3.8189883899862744
H 0.06037273084837028 1.8701699104976062 -3.193684962234344
H 1.5081959000821494 1.897376887618483 -1.2090164217548676
H 2.1554479705866476 0.7897666336708548 -2.4072511277594617
H -0.9891881163647929 2.2295300971200285 -0.9623383102419742
H -2.075275649991169 1.4186221307388769 -2.077352506809167
H -3.945660355437508 0.44822333715651685 -1.1790824324285285
H -5.8839265037539965 0.8108010183746227 0.24533156780251483


--Link1--
%nprocshared=8
%mem=16GB
%Oldchk=LALHUWOVOZGIAW-WGKKAQPQSA-N_conf_3_0.chk
%Chk=LALHUWOVOZGIAW-WGKKAQPQSA-N_conf_3_1.chk
# freq B3LYP/6-31G** SCRF=(Solvent=water) volume NMR pop=NPA density=current Geom=AllCheck Guess=Read


--Link1--
%nprocshared=8
%mem=16GB
%Oldchk=LALHUWOVOZGIAW-WGKKAQPQSA-N_conf_3_1.chk
%Chk=LALHUWOVOZGIAW-WGKKAQPQSA-N_conf_3_2.chk
# TD(NStates=10, Root=1) B3LYP/6-31G** SCRF=(Solvent=water) volume pop=NPA density=current Geom=AllCheck Guess=Read



