%nprocshared=8
%mem=16GB
%Chk=LALHUWOVOZGIAW-WGKKAQPQSA-N_conf_0_0.chk
# opt=CalcFc B3LYP/6-31G** SCRF=(Solvent=water) scf=xqc 

LALHUWOVOZGIAW-WGKKAQPQSA-N_conf_0

0 1
N 6.035336464253499 2.7686183987839534 -0.01825941716513063
C 4.88041262703339 1.9842103945630796 -0.10867556752262432
C 4.966983219101565 0.595062426299311 -0.0921377645742233
C 3.810983551206031 -0.19510701419782095 -0.06457634918701846
C 2.5268780737942955 0.3777208408166416 -0.01101384735889831
C 1.277786881298536 -0.520138219105993 0.01871355328805848
C 1.3034401730510567 -1.4160663889241514 1.2868949172556983
C -0.06557657059117047 0.2734550059251337 0.035639584819697895
C -1.3145702139281261 -0.6563070150544158 0.05292299184530187
C -2.599347761936253 0.18933294979070245 0.012194840309993963
C -3.5803554044866632 0.13292241491291343 1.0136040165266833
C -4.738998772187902 0.9196030268186521 0.9452992995513539
C -4.936905515512073 1.8178473054677282 -0.1005666039190292
N -6.146057825535142 2.5110574743160567 -0.22150389500545983
C -4.004072735599715 1.839177602707084 -1.133455612860804
C -2.845198540067179 1.0554180761330125 -1.0692539134202645
C -1.1985006192876708 -1.5551601491134024 1.3180714571065981
C 0.1013174565764395 -2.3705110142067984 1.3087549790637434
C 0.13130572964616466 -3.264421559239494 0.06303080457710178
C 0.05099659073511648 -2.3989600057414893 -1.2002999769410017
C -1.252892180220846 -1.5891508505849998 -1.1873894027527159
C 1.2506476950612975 -1.4382029310727815 -1.2380848532246425
C 2.4603522810968057 1.7783473766313576 0.03823869474871366
C 3.6203660823935375 2.565508986301903 0.01038118526178932
H 6.858228601231486 2.329989623873589 -0.41887564903920294
H 5.907768954974211 3.7207639319787376 -0.3457093570708599
H 5.937655505649767 0.10692043889116173 -0.10120079503466767
H 3.936357994014419 -1.275499061673988 -0.07103578958226452
H 2.2231875215206123 -2.012695182845117 1.3322415735861908
H 1.2990407806109732 -0.7916495845465583 2.190487684791683
H -0.10487908469825413 0.9314244925795563 0.91569287713026
H -0.09943964714048684 0.930357484656229 -0.843739498609819
H -3.48348477520692 -0.5297654394371217 1.8686273495152295
H -5.487076350232 0.8196113335455942 1.7273395853496847
H -6.083246669058856 3.3423098105333224 -0.8004065734879933
H -6.601904944809316 2.6933490945798435 0.6667983617230243
H -4.165719537040499 2.4686844472146428 -2.0041966085281233
H -2.140048930896607 1.1268846878986083 -1.8943376968435517
H -2.0483792826384852 -2.2483770560128375 1.374920531960925
H -1.225613332199323 -0.9418494130408188 2.2286713835912804
H 0.1476837952612207 -2.9949365067280835 2.2083537611087065
H 1.0503736882155894 -3.8631273392169705 0.05152037532196474
H -0.7074895021485271 -3.9709310978379055 0.08755518664559192
H 0.07109980893048454 -3.0432484466349305 -2.0867667979329236
H -2.1138935564898027 -2.2711228882752708 -1.1896833054537475
H -1.3151115574510626 -1.015159465393192 -2.1202768211497323
H 1.2091511203718923 -0.8272972411031511 -2.1499533497411236
H 2.167777445152148 -2.035604525337889 -1.3124338440054424
H 1.5112577499374338 2.301226197029288 0.11377091515547687
H 3.5223735182443057 3.6454845730766188 0.08286594589335962


--Link1--
%nprocshared=8
%mem=16GB
%Oldchk=LALHUWOVOZGIAW-WGKKAQPQSA-N_conf_0_0.chk
%Chk=LALHUWOVOZGIAW-WGKKAQPQSA-N_conf_0_1.chk
# freq B3LYP/6-31G** SCRF=(Solvent=water) volume NMR pop=NPA density=current Geom=AllCheck Guess=Read


--Link1--
%nprocshared=8
%mem=16GB
%Oldchk=LALHUWOVOZGIAW-WGKKAQPQSA-N_conf_0_1.chk
%Chk=LALHUWOVOZGIAW-WGKKAQPQSA-N_conf_0_2.chk
# TD(NStates=10, Root=1) B3LYP/6-31G** SCRF=(Solvent=water) volume pop=NPA density=current Geom=AllCheck Guess=Read



