%nprocshared=8
%mem=16GB
%Chk=LALHUWOVOZGIAW-WGKKAQPQSA-N_conf_2_0.chk
# opt=CalcFc B3LYP/6-31G** SCRF=(Solvent=water) scf=xqc 

LALHUWOVOZGIAW-WGKKAQPQSA-N_conf_2

0 1
N 5.990793383618751 2.6534455041327027 0.3938074596499983
C 4.902923009496631 1.7760939960956077 0.33167052176696865
C 4.575278838275074 0.9782426326005914 1.4251878143381063
C 3.4215368641820345 0.18139767539732196 1.4193309548394477
C 2.534140840410841 0.1887655589095081 0.3325721077723172
C 1.2593489973375118 -0.671916187462774 0.2891054163416927
C 1.0878129858471388 -1.5939265089876622 1.53095134162747
C -0.00016797207998960227 0.2417325953899343 0.21044768939742206
C -1.318560587704774 -0.5798264935222683 0.09126277018319626
C -2.5207819356594894 0.36934079033183376 -0.05536966460578642
C -3.5616903056475 0.43086098909405407 0.8834041958959652
C -4.643382558756621 1.307559975846904 0.7177011230170273
C -4.74312073029546 2.1206731356080013 -0.4086197010558649
N -5.762746116204068 3.0733068506161394 -0.5082231304802975
C -3.6871953531316177 2.1185994003788164 -1.315495879227446
C -2.6050810548624828 1.2441929142329586 -1.1542054406789388
C -1.4041267395059203 -1.5049081350928146 1.3397063121536894
C -0.18951175298403755 -2.438102969506322 1.4302296581347802
C -0.12507108234653477 -3.319565168280537 0.1802559875748264
C 0.0019274541083960488 -2.4358887614820928 -1.0632097761605093
C -1.2157599005040403 -1.5024436987133793 -1.1581734943162296
C 1.2829759340989864 -1.5917059263555482 -0.9664065181211038
C 2.846758256891971 1.0494426873701106 -0.7357988583719905
C 4.000079674755744 1.8439961661825626 -0.7255281727316013
H 6.738061317932075 2.334299560243653 1.0018196938701394
H 6.331565413252579 2.945842978011764 -0.5163140119959339
H 5.217078475305537 0.9645852969133963 2.30214817920229
H 3.239923822173024 -0.4299988526830938 2.2983592510011484
H 1.9505424967350447 -2.266081436728376 1.6313632848016635
H 1.0414094770172482 -0.9949266448845202 2.4501965219044712
H 0.08983686851195537 0.9208547044230821 -0.6462212929945504
H -0.045061575092462385 0.8904541569481033 1.0973620639275823
H -3.559994052129675 -0.18708157566206227 1.7765030180738444
H -5.410662456633368 1.3442418922512376 1.4865234035905632
H -5.93923003320059 3.3841827133995412 -1.4580418426484667
H -6.614676906338635 2.811293253522654 -0.022932805971518106
H -3.692024875711666 2.7987435447447457 -2.1628069339493208
H -1.8168922119253066 1.271969223951964 -1.9030537222923023
H -2.3175643349582704 -2.1136117145307116 1.303804722903359
H -1.4559829730436094 -0.9057141449737185 2.2585331412408687
H -0.28043065500501524 -3.071579569732098 2.3200631321211036
H -1.0259468076272384 -3.9414465881512024 0.11042096922457054
H 0.7295122529815108 -4.004157745335286 0.24514382761076697
H 0.04796076706189256 -3.068161370985193 -1.957325481657749
H -1.1300324668011938 -0.9136968209345211 -2.07993777190533
H -2.132024662663048 -2.099567925049229 -1.2606048579166285
H 2.159453035654618 -2.2528732714109756 -0.9312508348578249
H 1.3807105411363731 -1.0033886479134053 -1.8872495528041553
H 2.185876605677055 1.1289859310836512 -1.5958551348174583
H 4.182212788350401 2.5174660306970877 -1.5584878326840268


--Link1--
%nprocshared=8
%mem=16GB
%Oldchk=LALHUWOVOZGIAW-WGKKAQPQSA-N_conf_2_0.chk
%Chk=LALHUWOVOZGIAW-WGKKAQPQSA-N_conf_2_1.chk
# freq B3LYP/6-31G** SCRF=(Solvent=water) volume NMR pop=NPA density=current Geom=AllCheck Guess=Read


--Link1--
%nprocshared=8
%mem=16GB
%Oldchk=LALHUWOVOZGIAW-WGKKAQPQSA-N_conf_2_1.chk
%Chk=LALHUWOVOZGIAW-WGKKAQPQSA-N_conf_2_2.chk
# TD(NStates=10, Root=1) B3LYP/6-31G** SCRF=(Solvent=water) volume pop=NPA density=current Geom=AllCheck Guess=Read



