%nprocshared=8
%mem=16GB
%Chk=LALHUWOVOZGIAW-WGKKAQPQSA-N_conf_1_0.chk
# opt=CalcFc B3LYP/6-31G** SCRF=(Solvent=water) scf=xqc 

LALHUWOVOZGIAW-WGKKAQPQSA-N_conf_1

0 1
N -6.2849282048672235 2.052452211334009 0.6521571891017306
C -5.034275880401014 1.4360549914474023 0.5378548591941813
C -4.1431415253338795 1.82559162103213 -0.45793765221846194
C -2.939548091237789 1.1365016358787374 -0.6526606953415609
C -2.604365895135589 0.00568114804582038 0.11479808814227485
C -1.272439999292095 -0.7270699014918873 -0.12317001799738994
C -1.2018333653495794 -1.2398239904376502 -1.587838620937304
C -0.08043543911997855 0.24560861950345528 0.11717274047521066
C 1.304907034521498 -0.41665201678838487 -0.16016292612141209
C 2.4987748025195695 0.5278025809263219 0.06356520635110217
C 3.812077439772138 0.07684460928453107 -0.16420667112734535
C 4.919509794775005 0.9113983925596115 0.03216168911046986
C 4.757782580700568 2.2105946094659523 0.504841862898798
N 5.852863966284121 3.0773028274312058 0.5881986761550811
C 3.4618262873344348 2.690943196656235 0.6767457986804719
C 2.3502154383498035 1.859020945482388 0.48120955555271666
C 1.2862252345435141 -0.9163121996695549 -1.6339319431894965
C 0.14548109907068205 -1.9208087832646454 -1.866505533649107
C 0.3204319273500985 -3.1176178485673582 -0.9238920633378721
C 0.2835648848003353 -2.641687716411956 0.5334591571646052
C 1.4268162503301947 -1.6475495699122262 0.7794240943130827
C -1.0594105012912205 -1.9535474256025893 0.8104354099479846
C -3.5427303435513284 -0.41103833637687154 1.0709682122745448
C -4.7463946080394255 0.28212084128495507 1.2626989483299143
H -6.291791623610888 3.0204082297448425 0.34703577136759495
H -6.717341920493557 1.9318172410503023 1.5623764589134572
H -4.372800992772267 2.673813603767337 -1.0970126493736094
H -2.270865782665308 1.4969953145846333 -1.431183059306681
H -1.3308095116641014 -0.41840052024136 -2.303540740442732
H -2.0215537013472766 -1.9450652833036048 -1.7804777922858015
H -0.18588197307258197 1.128588450479654 -0.5270686045054414
H -0.12374722595720754 0.6108499184225848 1.1534186052348399
H 3.9978063533055557 -0.9367427126225654 -0.5122611366591304
H 5.912217517094369 0.5286462247155411 -0.18826752453026233
H 5.70527783494412 3.8607294544927884 1.2163454571462786
H 6.73415822031711 2.6047629942983415 0.7616350345100193
H 3.2974344791945867 3.7246635034640927 0.9693080807810149
H 1.371008644736857 2.2953018281817745 0.6563652852475153
H 2.233195022974117 -1.4024225396764218 -1.8994511277280477
H 1.177239528774328 -0.06479634650450236 -2.3190841147880437
H 0.1705518150649293 -2.267390139454684 -2.9060177771185343
H 1.271400480056163 -3.6238013161273077 -1.1305409022609252
H -0.47494882978224956 -3.852462084794231 -1.0991295492691282
H 0.3982201314887992 -3.502323699802941 1.202413567524376
H 1.4186711792970084 -1.3235863961284724 1.8289103133543914
H 2.3801609399664856 -2.1692573730127873 0.6281052936132192
H -1.8656314792901445 -2.686074829785175 0.6708440727822971
H -1.088412399925867 -1.6439803852402868 1.8637168955775856
H -3.3764499753244124 -1.2906038424465511 1.6860153905537383
H -5.458079618041474 -0.0954797358705319 1.9921593878898907


--Link1--
%nprocshared=8
%mem=16GB
%Oldchk=LALHUWOVOZGIAW-WGKKAQPQSA-N_conf_1_0.chk
%Chk=LALHUWOVOZGIAW-WGKKAQPQSA-N_conf_1_1.chk
# freq B3LYP/6-31G** SCRF=(Solvent=water) volume NMR pop=NPA density=current Geom=AllCheck Guess=Read


--Link1--
%nprocshared=8
%mem=16GB
%Oldchk=LALHUWOVOZGIAW-WGKKAQPQSA-N_conf_1_1.chk
%Chk=LALHUWOVOZGIAW-WGKKAQPQSA-N_conf_1_2.chk
# TD(NStates=10, Root=1) B3LYP/6-31G** SCRF=(Solvent=water) volume pop=NPA density=current Geom=AllCheck Guess=Read



