%nprocshared=3
%mem=6GB
%Chk=UQUPIHHYKUEXQD-UHFFFAOYSA-N_conf_0_0.chk
# opt=CalcFc B3LYP/6-31G** SCRF=(Solvent=water) scf=xqc 

UQUPIHHYKUEXQD-UHFFFAOYSA-N_conf_0

0 1
C -2.0404288113849165 1.4713725239468518 -0.4784986689055617
N -1.8770487165312675 0.11505548371176778 -0.9865141522827423
C -1.5459803325707493 -0.8466146150131779 0.06699215268632053
C -0.15126046953067462 -0.676993255607182 0.6826548078586012
C 0.9710708454535539 -0.8017067836475119 -0.3537952154242395
N 2.3113594667194377 -0.7895136514274562 0.24434689370883397
C 2.7227116703462237 0.5414820786385712 0.6658341481861971
H -2.3618915060586745 2.1255320950802195 -1.2952879316611061
H -1.0995171711891285 1.8769919859703623 -0.0956074344207969
H -2.8016461204379683 1.5190837711021217 0.3068196289329608
H -2.7511474406349565 -0.17261016741338736 -1.4280735295984681
H -2.303447233829043 -0.8112309335812864 0.8596663116624441
H -1.6083530526459864 -1.8514022614880747 -0.3684803730404007
H -0.02386284400773512 -1.4536460133372107 1.4479320654959098
H -0.08962586931472 0.28323529123930485 1.2061140815399887
H 0.8933607076925336 -0.0210961060217302 -1.1195642273511566
H 0.8600446367162701 -1.7580454073322442 -0.8785896490561931
H 2.341372761865531 -1.4263656830319824 1.0389237503157969
H 2.0980214221617217 0.9281387456284664 1.4762802627024945
H 3.7526914762478003 0.5006490648533043 1.0340883675474637
H 2.703576580932731 1.2476838377301833 -0.17049323462412777


--Link1--
%nprocshared=3
%mem=6GB
%Oldchk=UQUPIHHYKUEXQD-UHFFFAOYSA-N_conf_0_0.chk
%Chk=UQUPIHHYKUEXQD-UHFFFAOYSA-N_conf_0_1.chk
# freq B3LYP/6-31G** SCRF=(Solvent=water) volume NMR pop=NPA density=current Geom=AllCheck Guess=Read


--Link1--
%nprocshared=3
%mem=6GB
%Oldchk=UQUPIHHYKUEXQD-UHFFFAOYSA-N_conf_0_1.chk
%Chk=UQUPIHHYKUEXQD-UHFFFAOYSA-N_conf_0_2.chk
# TD(NStates=10, Root=1) B3LYP/6-31G** SCRF=(Solvent=water) volume pop=NPA density=current Geom=AllCheck Guess=Read



