%nprocshared=6
%mem=12GB
%Chk=WUPRYUDHUFLKFL-UHFFFAOYSA-N_conf_4_0.chk
# opt=CalcFc B3LYP/6-31G** SCRF=(Solvent=water) scf=xqc

WUPRYUDHUFLKFL-UHFFFAOYSA-N_conf_4

0 1
 N                 -7.47145400    0.24268500    0.97028000
 C                 -6.20278200    0.10409800    0.40529600
 C                 -5.53764600   -1.13631800    0.42349100
 C                 -4.24633900   -1.26088500   -0.08409600
 C                 -3.59755700   -0.14777900   -0.61741300
 O                 -2.34200200   -0.29295400   -1.20929700
 C                 -1.20626800   -0.11462100   -0.44982000
 C                  0.00009700   -0.27795500   -1.13362500
 C                  1.20700100   -0.11745600   -0.45028400
 O                  2.34213500   -0.29981000   -1.20944100
 C                  3.59772800   -0.15149100   -0.61829400
 C                  4.25174000   -1.26462500   -0.09159200
 C                  5.54298700   -1.13736300    0.41555900
 C                  6.20189200    0.10660400    0.40519100
 N                  7.46967300    0.24906900    0.97077800
 C                  5.52539900    1.21702900   -0.13402500
 C                  4.23450100    1.08883200   -0.64142800
 C                  1.22098600    0.20486400    0.91197500
 C                  0.00129700    0.36259800    1.57093600
 C                 -1.21903200    0.20806500    0.91224800
 C                 -4.24030100    1.08942000   -0.64764900
 C                 -5.53171500    1.21469900   -0.14059400
 H                 -8.01575900    1.01352400    0.60427000
 H                 -8.01935000   -0.60802800    0.99460000
 H                 -6.03955400   -2.00716000    0.83614700
 H                 -3.74268900   -2.22240500   -0.07711600
 H                 -0.00035400   -0.52752900   -2.18872700
 H                  3.75211300   -2.22827100   -0.09025900
 H                  6.04968600   -2.00861100    0.82148700
 H                  8.02163300   -0.59893600    0.99381800
 H                  8.01050000    1.02428200    0.60878500
 H                  6.01789700    2.18528500   -0.15538500
 H                  3.72170400    1.94673800   -1.06474900
 H                  2.15773300    0.32914000    1.44048700
 H                  0.00173500    0.61304300    2.62786300
 H                 -2.15525900    0.33486600    1.44100100
 H                 -3.73177900    1.94706100   -1.07667800
 H                 -6.02878500    2.18054100   -0.16830300


--Link1--
%nprocshared=6
%mem=12GB
%Oldchk=WUPRYUDHUFLKFL-UHFFFAOYSA-N_conf_4_0.chk
%Chk=WUPRYUDHUFLKFL-UHFFFAOYSA-N_conf_4_1.chk
# freq B3LYP/6-31G** SCRF=(Solvent=water) volume NMR pop=NPA density=current Geom=AllCheck Guess=Read


--Link1--
%nprocshared=6
%mem=12GB
%Oldchk=WUPRYUDHUFLKFL-UHFFFAOYSA-N_conf_4_1.chk
%Chk=WUPRYUDHUFLKFL-UHFFFAOYSA-N_conf_4_2.chk
# TD(NStates=10, Root=1) B3LYP/6-31G** SCRF=(Solvent=water) volume pop=NPA density=current Geom=AllCheck Guess=Read




