%nprocshared=6
%mem=12GB
%Chk=WUPRYUDHUFLKFL-UHFFFAOYSA-N_conf_2_0.chk
# opt=CalcFc B3LYP/6-31G** SCRF=(Solvent=water) scf=xqc

WUPRYUDHUFLKFL-UHFFFAOYSA-N_conf_2

0 1
 N                 -7.46495100    0.62928200    0.79103500
 C                 -6.19906300    0.26979300    0.32634000
 C                 -5.50660900    1.09052600   -0.58403500
 C                 -4.21719900    0.76587900   -0.99901000
 C                 -3.59753000   -0.38391300   -0.51026100
 O                 -2.34208200   -0.75688200   -0.99284400
 C                 -1.20675900   -0.29619500   -0.36265200
 C                 -0.00009600   -0.70175600   -0.93654800
 C                  1.20681800   -0.28979900   -0.36796100
 O                  2.34191800   -0.74258000   -1.00406600
 C                  3.59737200   -0.37604200   -0.51640400
 C                  4.25747600   -1.20418200    0.39069600
 C                  5.54727800   -0.88693900    0.81069900
 C                  6.19890900    0.26461400    0.33020200
 N                  7.46482100    0.61778100    0.79957700
 C                  5.51688500    1.08488700   -0.58831900
 C                  4.22725500    0.76678900   -1.00802400
 C                  1.22050500    0.52527300    0.77020800
 C                  0.00055700    0.91644300    1.32323600
 C                 -1.21981600    0.51876900    0.77552600
 C                 -4.26788400   -1.21236400    0.38878700
 C                 -5.55787100   -0.88875800    0.80371400
 H                 -8.02970400   -0.14263500    1.12215500
 H                 -7.99327800    1.22232200    0.16367300
 H                 -5.98635400    1.98607600   -0.96924800
 H                 -3.69223000    1.39721600   -1.70895800
 H                 -0.00034500   -1.33269500   -1.81825000
 H                  3.76356400   -2.09859400    0.75713900
 H                  6.05836800   -1.53679400    1.51569700
 H                  8.02204200   -0.15610400    1.13872400
 H                  8.00097000    1.20314800    0.17167400
 H                  6.00463000    1.97500900   -0.97607600
 H                  3.71010900    1.39774000   -1.72400600
 H                  2.15722600    0.84372600    1.20987100
 H                  0.00079600    1.54844200    2.20662600
 H                 -2.15615800    0.83223500    1.21948800
 H                 -3.78176900   -2.11193000    0.75297100
 H                 -6.07701200   -1.53905700    1.50235400


--Link1--
%nprocshared=6
%mem=12GB
%Oldchk=WUPRYUDHUFLKFL-UHFFFAOYSA-N_conf_2_0.chk
%Chk=WUPRYUDHUFLKFL-UHFFFAOYSA-N_conf_2_1.chk
# freq B3LYP/6-31G** SCRF=(Solvent=water) volume NMR pop=NPA density=current Geom=AllCheck Guess=Read


--Link1--
%nprocshared=6
%mem=12GB
%Oldchk=WUPRYUDHUFLKFL-UHFFFAOYSA-N_conf_2_1.chk
%Chk=WUPRYUDHUFLKFL-UHFFFAOYSA-N_conf_2_2.chk
# TD(NStates=10, Root=1) B3LYP/6-31G** SCRF=(Solvent=water) volume pop=NPA density=current Geom=AllCheck Guess=Read

