%nprocshared=6
%mem=12GB
%Chk=WUPRYUDHUFLKFL-UHFFFAOYSA-N_conf_0_0.chk
# opt=CalcFc B3LYP/6-31G** SCRF=(Solvent=water) scf=xqc 

WUPRYUDHUFLKFL-UHFFFAOYSA-N_conf_0

0 1
N 7.414891150560925 0.1483008025287583 -0.21043149900100072
C 6.065995771484522 -0.037963659343280165 0.11226805540556042
C 5.108644758321993 -0.14455833186481418 -0.9008025213691025
C 3.7777769357638955 -0.4474187677833961 -0.5982655234559799
C 3.403065597205722 -0.6730205781053171 0.7265308531134339
O 2.1206791186713794 -1.012616687128056 1.0918468431157267
C 1.0950114570778013 -0.26270222139447036 0.5622567184481971
C 0.0006732531024100419 -0.9578623782062715 0.04919898661501116
C -1.0887051137125972 -0.2506363485572612 -0.4580677601232995
O -2.1185786481726008 -0.9909753667368437 -0.9935429761047715
C -3.401024423748379 -0.6281616791331379 -0.6523608738591409
C -4.334484843292908 -0.5502533131051853 -1.683496909384793
C -5.660643861290558 -0.21489227249645484 -1.3977805715998666
C -6.077361809516748 -0.013747433921884553 -0.07872828364495553
N -7.374534660219304 0.43845782113812926 0.18896526095959426
C -5.123924924508808 -0.0608426902479778 0.9426625590662363
C -3.795369844912481 -0.39580636237830086 0.665560757429483
C -1.0764226171009657 1.1475319528307701 -0.4745039475154237
C 0.010972038168451506 1.839232489827126 0.06160058259445724
C 1.0933422302655509 1.135127083863956 0.5913186173951397
C 4.364274860955055 -0.6500514157810007 1.7344922689572815
C 5.692608865225119 -0.34664601281417057 1.4234258656837642
H 7.973248240840231 0.5159208500732952 0.5533795148903611
H 7.563593530261417 0.6562278079999134 -1.076641054442482
H 5.392194459226297 0.001998787243929056 -1.9395482329892262
H 3.0508125467140443 -0.5248582115273087 -1.401570710203024
H -0.0029205755256626474 -2.0437171352241417 0.044496773460643714
H -4.028523733190128 -0.7308378893135439 -2.7099432818477154
H -6.368060492308748 -0.11682024895684168 -2.216653173037229
H -7.6836618500399565 0.25679405907504066 1.138741531126695
H -8.06024104602213 0.1479548748031072 -0.5009350723146704
H -5.409205086312095 0.1566922833146215 1.9683660978127513
H -3.079505804256402 -0.46413167327209576 1.479548975636014
H -1.908326527247179 1.7030511260406824 -0.8993942166352091
H 0.014285983256006989 2.926145032924544 0.06670269757608531
H 1.929293058790161 1.6797870208148948 1.0217939434985872
H 4.0845763088650315 -0.8773625068010767 2.759143397030571
H 6.4355556966208125 -0.35733880838775034 2.2162553019417324


--Link1--
%nprocshared=6
%mem=12GB
%Oldchk=WUPRYUDHUFLKFL-UHFFFAOYSA-N_conf_0_0.chk
%Chk=WUPRYUDHUFLKFL-UHFFFAOYSA-N_conf_0_1.chk
# freq B3LYP/6-31G** SCRF=(Solvent=water) volume NMR pop=NPA density=current Geom=AllCheck Guess=Read


--Link1--
%nprocshared=6
%mem=12GB
%Oldchk=WUPRYUDHUFLKFL-UHFFFAOYSA-N_conf_0_1.chk
%Chk=WUPRYUDHUFLKFL-UHFFFAOYSA-N_conf_0_2.chk
# TD(NStates=10, Root=1) B3LYP/6-31G** SCRF=(Solvent=water) volume pop=NPA density=current Geom=AllCheck Guess=Read



