%nprocshared=6
%mem=12GB
%Chk=WUPRYUDHUFLKFL-UHFFFAOYSA-N_conf_3_0.chk
# opt=CalcFc B3LYP/6-31G** SCRF=(Solvent=water) scf=xqc 

WUPRYUDHUFLKFL-UHFFFAOYSA-N_conf_3

0 1
N 7.369578190756626 -0.04403730344621189 -0.5864346775388133
C 6.06259137497065 -0.39668080529181443 -0.23117081830080136
C 5.70278201129226 -0.49823577682703807 1.1157673590589416
C 4.374989065393069 -0.7315617355869644 1.4836609931933307
C 3.3866259611025358 -0.805597090523926 0.5047168465906104
O 2.103571661384751 -1.0659813688105813 0.9274899354550737
C 1.0949371134898824 -0.2919678385823895 0.3992656061417128
C -0.05951923997198317 -0.9549923529516134 -0.015278827327153308
C -1.1338781779528746 -0.22051107454965096 -0.5156318819624837
O -2.228436317082253 -0.9314187699938667 -0.9531379132999149
C -3.468015224885103 -0.4911327863249159 -0.5495873125744085
C -4.474507493114111 -0.4613848644749405 -1.512161055820284
C -5.764789947051648 -0.05723115843655674 -1.1584500903489028
C -6.053453252005184 0.34535982578285784 0.14862449455185092
N -7.370839734180518 0.6347284842573117 0.5216049764743539
C -5.0556551035369095 0.232882772729216 1.1212296852364512
C -3.7624040912107084 -0.17047993063505087 0.7758943502423922
C -1.0486047440135189 1.1707676754481469 -0.6245713341772879
C 0.09981585513046688 1.8323288471655208 -0.1871134611608233
C 1.1686312704718944 1.1029783489143514 0.33627993677812945
C 3.7261252221529055 -0.6714487901435012 -0.8418264533678479
C 5.056729690299293 -0.4382340219617068 -1.2012277019369448
H 7.617635292834417 -0.29654845385240847 -1.5379200810244698
H 8.070791639493441 -0.33992062727968514 0.08535395952275393
H 6.456120175771619 -0.40116985742533373 1.8927345276931673
H 4.111791024298499 -0.8357346475092713 2.532320899654304
H -0.12173785662505344 -2.0370253025139795 0.05130910462229287
H -4.2600987016614145 -0.7613043961701208 -2.5338816822590755
H -6.545170693441874 -0.06336608365079216 -1.9145150698043727
H -7.942696586202133 0.9951105115400248 -0.23563552319298925
H -7.4452313344292005 1.1975558650024327 1.3630968332965354
H -5.278122952933052 0.45345959203264175 2.1617649781529997
H -3.002826928042261 -0.2506109670669544 1.5481658556781082
H -1.8703646349981244 1.7433720613461348 -1.0460088243607093
H 0.16239677880389908 2.915378571480757 -0.2542070345334298
H 2.053122884089079 1.6266267407791868 0.6893329685078232
H 2.966476548291037 -0.7380127082914197 -1.6152646393328178
H 5.301641253312643 -0.2959605841774645 -2.2503111511029372


--Link1--
%nprocshared=6
%mem=12GB
%Oldchk=WUPRYUDHUFLKFL-UHFFFAOYSA-N_conf_3_0.chk
%Chk=WUPRYUDHUFLKFL-UHFFFAOYSA-N_conf_3_1.chk
# freq B3LYP/6-31G** SCRF=(Solvent=water) volume NMR pop=NPA density=current Geom=AllCheck Guess=Read


--Link1--
%nprocshared=6
%mem=12GB
%Oldchk=WUPRYUDHUFLKFL-UHFFFAOYSA-N_conf_3_1.chk
%Chk=WUPRYUDHUFLKFL-UHFFFAOYSA-N_conf_3_2.chk
# TD(NStates=10, Root=1) B3LYP/6-31G** SCRF=(Solvent=water) volume pop=NPA density=current Geom=AllCheck Guess=Read



