%nprocshared=6
%mem=12GB
%Chk=WUPRYUDHUFLKFL-UHFFFAOYSA-N_conf_1_0.chk
# opt=CalcFc B3LYP/6-31G** SCRF=(Solvent=water) scf=xqc 

WUPRYUDHUFLKFL-UHFFFAOYSA-N_conf_1

0 1
N -6.505288487945308 1.4719832383579403 0.6029066580356127
C -5.368325257764385 0.657327545473259 0.5520280860658289
C -4.972063859700245 -0.06842931374992975 1.679008265654741
C -3.9092883998772803 -0.9732004038257751 1.6076354520145482
C -3.2522298313296236 -1.1779841985453678 0.39655342264856264
O -2.2373070958388666 -2.106818110387661 0.3837153318316214
C -1.0798952157180683 -1.7692754844587002 -0.2808698349091835
C -0.43249158663091536 -0.5459284432277454 -0.09469795521230888
C 0.7642042607224517 -0.2933402078742454 -0.7652069632017885
O 1.3348062772934355 0.9457073946429077 -0.5780705402943551
C 2.689236246223305 0.9877481074042584 -0.34020759020360913
C 3.428369845687913 1.9342021682868262 -1.0463414838285072
C 4.80417274189304 2.046638283913796 -0.8287012060661552
C 5.440767997226532 1.2590439288112432 0.1348417079688041
N 6.834090561503235 1.2911369209358294 0.26235578401179227
C 4.6944623706304025 0.2897447399177922 0.8115617195805175
C 3.317795516340252 0.17081764771263994 0.6000013705720348
C 1.3016413900771693 -1.2465117738384461 -1.6359542088581998
C 0.6624383743288101 -2.476238851335022 -1.7998855199410315
C -0.5227460964091417 -2.7418633782692745 -1.11311018722227
C -3.69111743556628 -0.5216981493030011 -0.7536646252236695
C -4.7547161344455775 0.38198876160936834 -0.6734771039458888
H -6.536993104653816 2.176562428773643 -0.12724694185418584
H -6.6894469381032104 1.8615235484068131 1.5220208640622839
H -5.490509564478454 0.06261809711685792 2.624877680558111
H -3.602751752093999 -1.5220581418295973 2.4933930757733873
H -0.8439136366227458 0.20491151035260158 0.5730273976209691
H 2.940174882188505 2.5705102810045353 -1.778860384019094
H 5.374685155075585 2.760132184059607 -1.4169675429259267
H 7.171737242276044 0.950106425819891 1.1569405481964778
H 7.24865317556268 2.1824031495093044 0.008812877241026123
H 5.178509795389151 -0.37976407791007755 1.5174418944891843
H 2.751039691755941 -0.5637252427887649 1.164737159989179
H 2.21607046759202 -1.0399274748392755 -2.1857867734225183
H 1.0868632418888178 -3.2253258862711673 -2.4632538883268134
H -1.0192359991430817 -3.7009135692072617 -1.2349646051449765
H -3.228146790468354 -0.7190088542521625 -1.7161451437536261
H -5.103252046866818 0.8669051998044544 -1.5813289671878943


--Link1--
%nprocshared=6
%mem=12GB
%Oldchk=WUPRYUDHUFLKFL-UHFFFAOYSA-N_conf_1_0.chk
%Chk=WUPRYUDHUFLKFL-UHFFFAOYSA-N_conf_1_1.chk
# freq B3LYP/6-31G** SCRF=(Solvent=water) volume NMR pop=NPA density=current Geom=AllCheck Guess=Read


--Link1--
%nprocshared=6
%mem=12GB
%Oldchk=WUPRYUDHUFLKFL-UHFFFAOYSA-N_conf_1_1.chk
%Chk=WUPRYUDHUFLKFL-UHFFFAOYSA-N_conf_1_2.chk
# TD(NStates=10, Root=1) B3LYP/6-31G** SCRF=(Solvent=water) volume pop=NPA density=current Geom=AllCheck Guess=Read



