%nprocshared=4
%mem=8GB
%Chk=UDGSVBYJWHOHNN-UHFFFAOYSA-N_conf_0_0.chk
# opt=CalcFc B3LYP/6-31G** SCRF=(Solvent=water) scf=xqc 

UDGSVBYJWHOHNN-UHFFFAOYSA-N_conf_0

0 1
N 3.1593385028261323 0.45558728285138417 0.7084297810600946
C 2.034175438171427 0.4285928001260068 -0.2311547634071004
C 0.7830903082907988 -0.22530583542597887 0.3970266610014093
N -0.36616181479848137 -0.36274270700973676 -0.5212310540038999
C -0.8321137905014576 0.9109969537007165 -1.0942981984467295
C -1.3040189934628037 1.9696733397458108 -0.1015275754771385
C -1.4761003479589692 -1.105675198636196 0.10078966458302041
C -1.1786928179026064 -2.593837364056859 0.2586067261913396
H 2.9202341652346164 1.0409965951062532 1.5074818584878855
H 3.9574565987559978 0.9000851204252431 0.25648848956646136
H 2.334454849521545 -0.13185767097637668 -1.1233442486969307
H 1.825593657041887 1.458820783744841 -0.5357421448941632
H 1.0921171274521033 -1.2218514064579127 0.7334820215512953
H 0.49256314743954654 0.32842538960969275 1.2990354424751696
H -0.04342376610857296 1.339341097836526 -1.7234130515582131
H -1.6502994158698843 0.7040579381395118 -1.7966463186989894
H -0.4965125387315421 2.29441013550526 0.5611686291485966
H -2.134764032353809 1.6086945521027303 0.5120824404442003
H -1.6563701731345732 2.8530773249405597 -0.644677944349385
H -1.748073732322814 -0.6787555708261375 1.0737546077149458
H -2.366262380271754 -1.0344574724026299 -0.5372901472038993
H -0.8576828061652401 -3.0351489048223823 -0.6908255881374422
H -2.082648575129851 -3.1205072775834517 0.5827117938794888
H -0.40589861002164174 -2.7826199056367904 1.0090929187700333


--Link1--
%nprocshared=4
%mem=8GB
%Oldchk=UDGSVBYJWHOHNN-UHFFFAOYSA-N_conf_0_0.chk
%Chk=UDGSVBYJWHOHNN-UHFFFAOYSA-N_conf_0_1.chk
# freq B3LYP/6-31G** SCRF=(Solvent=water) volume NMR pop=NPA density=current Geom=AllCheck Guess=Read


--Link1--
%nprocshared=4
%mem=8GB
%Oldchk=UDGSVBYJWHOHNN-UHFFFAOYSA-N_conf_0_1.chk
%Chk=UDGSVBYJWHOHNN-UHFFFAOYSA-N_conf_0_2.chk
# TD(NStates=10, Root=1) B3LYP/6-31G** SCRF=(Solvent=water) volume pop=NPA density=current Geom=AllCheck Guess=Read



