%nprocshared=4
%mem=8GB
%Chk=UDGSVBYJWHOHNN-UHFFFAOYSA-N_conf_3_0.chk
# opt=CalcFc B3LYP/6-31G** SCRF=(Solvent=water) scf=xqc 

UDGSVBYJWHOHNN-UHFFFAOYSA-N_conf_3

0 1
N 3.0339645050998896 -1.342141400453513 -0.8931131038489349
C 1.8678995278831991 -1.0838122063990958 -0.04294262066511501
C 0.8893251674917263 -0.09121354795537893 -0.707519368963146
N -0.3028039607033869 0.17289668758416726 0.13182439995193904
C -0.9093992444688453 1.4707051417789032 -0.2236402298951226
C -0.14069184128589363 2.6438596777216428 0.37817763093658674
C -1.2848519085700405 -0.9194278194933231 -0.012001127657853551
C -2.255528761914128 -0.9743792923393889 1.164153103289145
H 2.732679882966917 -1.8100444801011915 -1.7467425404704837
H 3.652504053208368 -1.995299763685766 -0.413637925689454
H 1.380890117169878 -2.039978980745788 0.17116140524672757
H 2.2143641906359584 -0.6708065646495195 0.9112129464141714
H 1.452307698909766 0.8337341205021295 -0.8790555330419116
H 0.5878962650095234 -0.45217299829250135 -1.7003069992258504
H -0.9901217012090829 1.5860832202787167 -1.3119686390908905
H -1.928979916480857 1.5416148365449138 0.17041400203184282
H -0.6728437958780986 3.5793630595905417 0.17548023473810104
H 0.8650448256755536 2.7427180708805214 -0.0393388443408805
H -0.053281607668597165 2.538743831062267 1.4648980355032113
H -0.7792798260321186 -1.8911185033196856 -0.03661169824301096
H -1.836764603759896 -0.8346282923531838 -0.9567475054791188
H -2.9008359338018805 -1.8544560246237727 1.0720733224154169
H -2.9051943145855628 -0.09604411883216742 1.2100968430649164
H -1.7162988176925127 -1.054194652699606 2.1141342130196787


--Link1--
%nprocshared=4
%mem=8GB
%Oldchk=UDGSVBYJWHOHNN-UHFFFAOYSA-N_conf_3_0.chk
%Chk=UDGSVBYJWHOHNN-UHFFFAOYSA-N_conf_3_1.chk
# freq B3LYP/6-31G** SCRF=(Solvent=water) volume NMR pop=NPA density=current Geom=AllCheck Guess=Read


--Link1--
%nprocshared=4
%mem=8GB
%Oldchk=UDGSVBYJWHOHNN-UHFFFAOYSA-N_conf_3_1.chk
%Chk=UDGSVBYJWHOHNN-UHFFFAOYSA-N_conf_3_2.chk
# TD(NStates=10, Root=1) B3LYP/6-31G** SCRF=(Solvent=water) volume pop=NPA density=current Geom=AllCheck Guess=Read



