%nprocshared=4
%mem=8GB
%Chk=UDGSVBYJWHOHNN-UHFFFAOYSA-N_conf_2_0.chk
# opt=CalcFc B3LYP/6-31G** SCRF=(Solvent=water) scf=xqc 

UDGSVBYJWHOHNN-UHFFFAOYSA-N_conf_2

0 1
N 2.459563648405352 -1.2654790980595227 -0.12369732068795355
C 1.662483732873972 -1.0275426048779255 1.0871067550448452
C 0.6671683565625326 0.14320491697521032 0.9064267638000136
N 0.00022789211563525118 0.13497958029706716 -0.4156983970560057
C -1.3128624399596454 -0.5322995078981783 -0.4040067499644049
C -1.25113046840351 -2.0322701777973697 -0.1463582930972753
C -0.09839821201177464 1.491631574666987 -0.985582830827523
C -0.9595629387308183 2.489225422742785 -0.21437203990592946
H 2.9952756674461916 -0.42108431464968693 -0.3231881871786371
H 1.7811111665739991 -1.2956512065251617 -0.8939730594109979
H 1.1321503052729691 -1.9503706512605183 1.335452385348786
H 2.334320238950082 -0.8129327633130491 1.9252385548999131
H -0.05549113930629134 0.16290530098759162 1.7313699674737821
H 1.2674871564073 1.0578326195527825 1.0084536659568335
H -1.7813766831262214 -0.40435504300700276 -1.3883341768294912
H -1.9869416224313694 -0.07416122566955825 0.3297766533555493
H -2.2282233886816787 -2.4838707863971434 -0.34929335091559405
H -0.5181991623592523 -2.5204215882007066 -0.7965659178058331
H -1.0063545886963976 -2.2518647540823413 0.8961751618531414
H 0.913628537708868 1.903950297659091 -1.0888248758423633
H -0.47779666291492234 1.418914714743602 -2.012859242140125
H -0.9156129804432372 3.4686701181378026 -0.7024394950452431
H -0.6117760461674131 2.617710941073279 0.8150250699585172
H -2.0096903690842765 2.1832782349021143 -0.18983104098409115


--Link1--
%nprocshared=4
%mem=8GB
%Oldchk=UDGSVBYJWHOHNN-UHFFFAOYSA-N_conf_2_0.chk
%Chk=UDGSVBYJWHOHNN-UHFFFAOYSA-N_conf_2_1.chk
# freq B3LYP/6-31G** SCRF=(Solvent=water) volume NMR pop=NPA density=current Geom=AllCheck Guess=Read


--Link1--
%nprocshared=4
%mem=8GB
%Oldchk=UDGSVBYJWHOHNN-UHFFFAOYSA-N_conf_2_1.chk
%Chk=UDGSVBYJWHOHNN-UHFFFAOYSA-N_conf_2_2.chk
# TD(NStates=10, Root=1) B3LYP/6-31G** SCRF=(Solvent=water) volume pop=NPA density=current Geom=AllCheck Guess=Read



