%nprocshared=4
%mem=8GB
%Chk=ZLSMCQSGRWNEGX-UHFFFAOYSA-N_conf_1_0.chk
# opt=CalcFc B3LYP/6-31G** SCRF=(Solvent=water) scf=xqc 

ZLSMCQSGRWNEGX-UHFFFAOYSA-N_conf_1

0 1
O 0.29145805368035826 -0.8348182875970442 -2.577934350898229
C 0.16124417827583054 -0.4618471276965905 -1.4147308439890363
C 1.3684008334345112 -0.1000545029875011 -0.6305285015174018
C 2.4357254992597532 0.5122696403652175 -1.2932657100807137
C 3.5900951306964317 0.862101855582482 -0.5868064665190882
C 3.7165253074758917 0.5550941218726727 0.7704566146863555
N 4.819936755923092 1.015215455082479 1.4967541756743583
C 2.6307075684741803 -0.024536314735758076 1.4330722058400986
C 1.4704523974611843 -0.37741667821547337 0.7359166383970303
C -1.1994897805273517 -0.3837524464081534 -0.8270259618466905
C -2.1491981206405493 -1.3329542081636347 -1.214857522467298
C -3.441955455501931 -1.2864060693868873 -0.6850946531163756
C -3.8182438265842147 -0.26374512770727276 0.18953187430376078
N -5.072267669655262 -0.29246474644834347 0.80867330956217
C -2.85253733979387 0.6599117251928843 0.5997765954416052
C -1.5556973281403852 0.6215769118889002 0.07682427314315361
H 2.366723950867334 0.7311431634802761 -2.3568280045621854
H 4.394034748783155 1.3720798245340164 -1.111246665735949
H 5.661068727409178 1.1270592654046288 0.9387285062762205
H 4.9947797100130815 0.498830632911034 2.3532298950024515
H 2.682792947577303 -0.2153984813648092 2.5020777605218276
H 0.6634797693220483 -0.8688783644309789 1.272844253919975
H -1.8823338881773164 -2.1185546282866747 -1.9187372192483163
H -4.155372917929289 -2.0556555984749427 -0.9692118950299926
H -5.789676551616079 -0.7586994169461508 0.2615386675805813
H -5.38187989910312 0.6099149727490345 1.1559847706062256
H -3.1057608839836615 1.4268863937225518 1.3274733056217443
H -0.8430119170002457 1.3830980360641707 0.38210333535823454


--Link1--
%nprocshared=4
%mem=8GB
%Oldchk=ZLSMCQSGRWNEGX-UHFFFAOYSA-N_conf_1_0.chk
%Chk=ZLSMCQSGRWNEGX-UHFFFAOYSA-N_conf_1_1.chk
# freq B3LYP/6-31G** SCRF=(Solvent=water) volume NMR pop=NPA density=current Geom=AllCheck Guess=Read


--Link1--
%nprocshared=4
%mem=8GB
%Oldchk=ZLSMCQSGRWNEGX-UHFFFAOYSA-N_conf_1_1.chk
%Chk=ZLSMCQSGRWNEGX-UHFFFAOYSA-N_conf_1_2.chk
# TD(NStates=10, Root=1) B3LYP/6-31G** SCRF=(Solvent=water) volume pop=NPA density=current Geom=AllCheck Guess=Read



