%nprocshared=4
%mem=8GB
%Chk=ZLSMCQSGRWNEGX-UHFFFAOYSA-N_conf_2_0.chk
# opt=CalcFc B3LYP/6-31G** SCRF=(Solvent=water) scf=xqc 

ZLSMCQSGRWNEGX-UHFFFAOYSA-N_conf_2

0 1
O 0.15601878352252388 -2.64364988408548 -0.6150839579274499
C 0.08678203020062644 -1.4704616818975322 -0.25752996301147935
C -1.2439894776723235 -0.8777914013263622 0.031286277367454436
C -2.348009028351537 -1.3243656062762243 -0.7002464563529621
C -3.6177760747764633 -0.7981025083420615 -0.44427154801514035
C -3.7971721405267975 0.19746113972542398 0.5194504283771805
N -5.084022857767195 0.6318294494240483 0.8517272222743913
C -2.7025466224075294 0.5798606092113616 1.2999747014739766
C -1.4277792943301344 0.05890422219514273 1.052795366491576
C 1.335815588399917 -0.6781378264331923 -0.12424360258136376
C 2.5049128599085684 -1.3340621944178224 0.2712361802506371
C 3.7015560468124282 -0.6212985891997471 0.3928755703648642
C 3.740999361780146 0.7543664153346537 0.15187303122361082
N 4.962006752565153 1.4356544529505133 0.15961324739605046
C 2.586538022185251 1.3856493239320116 -0.31967049441067713
C 1.384066255185504 0.6816109898703675 -0.445826627500741
H -2.2263871276228264 -2.0929905559450863 -1.4608319271055998
H -4.467869518097121 -1.1793249534829615 -1.0042463116550524
H -5.754361729775942 0.5606277315097051 0.09246120744476889
H -5.11347704825946 1.5370372645834531 1.3097494703619972
H -2.8358707581316454 1.2831029770849451 2.118272647494369
H -0.6011112602616074 0.37054830028949703 1.6855234717702687
H 2.4917767989810553 -2.4035231166259394 0.4715986948184992
H 4.605671291869391 -1.155314499116237 0.673879282974781
H 4.878787684198128 2.439541103415745 0.28345550814445547
H 5.660666930448602 1.0270025878178812 0.7726280679803803
H 2.6164457072367115 2.4345711662072307 -0.6039324328406169
H 0.5083288246868928 1.2012550835965625 -0.8251677849548962


--Link1--
%nprocshared=4
%mem=8GB
%Oldchk=ZLSMCQSGRWNEGX-UHFFFAOYSA-N_conf_2_0.chk
%Chk=ZLSMCQSGRWNEGX-UHFFFAOYSA-N_conf_2_1.chk
# freq B3LYP/6-31G** SCRF=(Solvent=water) volume NMR pop=NPA density=current Geom=AllCheck Guess=Read


--Link1--
%nprocshared=4
%mem=8GB
%Oldchk=ZLSMCQSGRWNEGX-UHFFFAOYSA-N_conf_2_1.chk
%Chk=ZLSMCQSGRWNEGX-UHFFFAOYSA-N_conf_2_2.chk
# TD(NStates=10, Root=1) B3LYP/6-31G** SCRF=(Solvent=water) volume pop=NPA density=current Geom=AllCheck Guess=Read



