%nprocshared=4
%mem=8GB
%Chk=ZLSMCQSGRWNEGX-UHFFFAOYSA-N_conf_4_0.chk
# opt=CalcFc B3LYP/6-31G** SCRF=(Solvent=water) scf=xqc 

ZLSMCQSGRWNEGX-UHFFFAOYSA-N_conf_4

0 1
O -0.30325668359389635 2.553627855980094 0.9716462888722316
C -0.17094543129743323 1.4140731442748564 0.5324197606884004
C 1.1832073598157404 0.9413851295789769 0.15147758961440358
C 1.3904544835845378 0.11607388922901242 -0.9576959333271335
C 2.6858660700448804 -0.29884249353110787 -1.2838851360856567
C 3.7873986067915664 0.14461655223376804 -0.546206428735904
N 5.06118887272184 -0.3727445653210945 -0.8040670818109861
C 3.5657489464766035 0.9384262690088481 0.5821851475177139
C 2.2755836971457586 1.360407742540007 0.9158092748189397
C -1.365931816832206 0.5430611458141952 0.39279951816783815
C -1.2998512732914862 -0.8381522722986101 0.5993684041452391
C -2.454213343596926 -1.6183720995260868 0.4718304694727757
C -3.6745305747041295 -1.0399491823972156 0.1115784591554659
N -4.842508180730437 -1.8085909540569045 0.1047181443725387
C -3.7462322119909897 0.34974156156048036 -0.013513420513232966
C -2.5985542452585535 1.1386044318978268 0.11072499491965804
H 0.5611590120990159 -0.20961659266964075 -1.5796732110257359
H 2.8291596271438335 -0.9678626231446983 -2.1286961828637456
H 5.818266568301366 0.20726505964846093 -0.4549125361637003
H 5.206395654897057 -0.651143593285845 -1.769506671247774
H 4.398341926695586 1.243170468801696 1.2109811616827395
H 2.124434895065885 2.004019836829612 1.7799758166916322
H -0.3701527291132552 -1.3200000645422747 0.8904138057398774
H -2.3934869714666434 -2.6861882379890236 0.6670352382300611
H -4.694353362264639 -2.790269624719181 -0.10621442646415197
H -5.600433060997327 -1.4063377151213752 -0.43798756473160616
H -4.700004324394543 0.834918857723846 -0.20444119286717344
H -2.6727515112499334 2.21867807348082 0.0014187212056484789


--Link1--
%nprocshared=4
%mem=8GB
%Oldchk=ZLSMCQSGRWNEGX-UHFFFAOYSA-N_conf_4_0.chk
%Chk=ZLSMCQSGRWNEGX-UHFFFAOYSA-N_conf_4_1.chk
# freq B3LYP/6-31G** SCRF=(Solvent=water) volume NMR pop=NPA density=current Geom=AllCheck Guess=Read


--Link1--
%nprocshared=4
%mem=8GB
%Oldchk=ZLSMCQSGRWNEGX-UHFFFAOYSA-N_conf_4_1.chk
%Chk=ZLSMCQSGRWNEGX-UHFFFAOYSA-N_conf_4_2.chk
# TD(NStates=10, Root=1) B3LYP/6-31G** SCRF=(Solvent=water) volume pop=NPA density=current Geom=AllCheck Guess=Read



