%nprocshared=4
%mem=8GB
%Chk=ZLSMCQSGRWNEGX-UHFFFAOYSA-N_conf_3_0.chk
# opt=CalcFc B3LYP/6-31G** SCRF=(Solvent=water) scf=xqc 

ZLSMCQSGRWNEGX-UHFFFAOYSA-N_conf_3

0 1
O 0.22984210901938948 -2.72111708115803 0.6006746461723864
C 0.12458494807856955 -1.5089717090617787 0.43144719052063407
C -1.219533611405457 -0.8791989405513471 0.48508492981751095
C -2.3251588793609814 -1.6256468425160158 0.06794934192645671
C -3.6065612614976494 -1.0685304810570682 0.11828395748808165
C -3.797591600370499 0.24480382558386396 0.5549662024761901
N -5.09054054098805 0.7524660042057799 0.7149285189438395
C -2.697765840212304 0.955061123449177 1.0442987048273402
C -1.411336860537496 0.4067667889462145 0.9991808843555604
C 1.3475795976191562 -0.7082438011405259 0.17571454076838264
C 2.528395633230719 -1.0657216326814398 0.8321846201307554
C 3.7001564490395094 -0.3364683570018116 0.6106757528336697
C 3.722372950132558 0.7166458517970091 -0.30746748572751764
N 4.8626992569100445 1.5169054969065336 -0.43369087705468373
C 2.52891489104625 1.0897295507137756 -0.9325043776824352
C 1.3503766907516574 0.3678486686995774 -0.7166808257015514
H -2.195269135505744 -2.6472841857786658 -0.28333208205627824
H -4.456356779852734 -1.6754809687751195 -0.1833622591041496
H -5.141294054479315 1.7659996527307926 0.7324900219103787
H -5.777588877670979 0.3414258448654483 0.09059186439594032
H -2.835236342443167 1.9432016377497938 1.476391081400127
H -0.5806881128753606 0.9835031007997649 1.397457047079541
H 2.5364512233131062 -1.9026731772777528 1.5273903097731505
H 4.59912427667412 -0.6052769109085246 1.1593698910321435
H 4.914876830883796 2.0265085175720916 -1.3101883848930778
H 5.729628427763284 1.0328550620554808 -0.22011755637819352
H 2.5090260403638034 1.9451059890145117 -1.6031456416356817
H 0.4508925723739849 0.6557869728181646 -1.2539719676074914


--Link1--
%nprocshared=4
%mem=8GB
%Oldchk=ZLSMCQSGRWNEGX-UHFFFAOYSA-N_conf_3_0.chk
%Chk=ZLSMCQSGRWNEGX-UHFFFAOYSA-N_conf_3_1.chk
# freq B3LYP/6-31G** SCRF=(Solvent=water) volume NMR pop=NPA density=current Geom=AllCheck Guess=Read


--Link1--
%nprocshared=4
%mem=8GB
%Oldchk=ZLSMCQSGRWNEGX-UHFFFAOYSA-N_conf_3_1.chk
%Chk=ZLSMCQSGRWNEGX-UHFFFAOYSA-N_conf_3_2.chk
# TD(NStates=10, Root=1) B3LYP/6-31G** SCRF=(Solvent=water) volume pop=NPA density=current Geom=AllCheck Guess=Read



