%nprocshared=4
%mem=8GB
%Chk=ZLSMCQSGRWNEGX-UHFFFAOYSA-N_conf_0_0.chk
# opt=CalcFc B3LYP/6-31G** SCRF=(Solvent=water) scf=xqc 

ZLSMCQSGRWNEGX-UHFFFAOYSA-N_conf_0

0 1
O -0.10134182357932421 -2.618324401499896 -0.8614967862830617
C -0.0590668039072114 -1.4504910332865018 -0.48282645235702865
C -1.3174481473067448 -0.6663078473833538 -0.3951889872121051
C -2.504075788369304 -1.3377904089105144 -0.08758803448379048
C -3.7089644672747566 -0.6326368472429765 -0.010729126363977966
C -3.7411088923777656 0.7499871849939883 -0.20909521645588244
N -4.963696947587208 1.4273009426164283 -0.24845132946780984
C -2.564786331199994 1.399379092525097 -0.5939097890180142
C -1.3538563928649545 0.703162729075833 -0.6745030793381529
C 1.2522849141592816 -0.8572568076670931 -0.12128857472518723
C 1.3871918939607732 0.03857620268546747 0.943434924037621
C 2.6447952677623103 0.5669558816272702 1.2530994649704723
C 3.782927130908839 0.16996327277607542 0.5451053485691383
N 5.011841167337635 0.7951156957718241 0.7810023845855935
C 3.631452496561634 -0.6966122411814171 -0.5405430587082634
C 2.379672845802666 -1.232010281481559 -0.8572389370416464
H -2.4976172029031893 -2.4131323134633944 0.07857527927881924
H -4.625077770147724 -1.1779120272803738 0.20126887934480114
H -4.8917545988621 2.427109400107397 -0.08925502951705383
H -5.693809766101921 0.9979314841015162 0.31133848720690904
H -2.583014246813945 2.456977003491838 -0.8452595381953648
H -0.46063683175882686 1.2380344372681165 -0.9864268032202688
H 0.5303853597825452 0.3328236475153708 1.5434036181778708
H 2.7299872139875165 1.2884161287028857 2.0618408776122705
H 5.813454757945565 0.25652962197716084 0.46663220931808064
H 5.127334947511536 1.1341041724184067 1.7309569428464036
H 4.490028870826484 -0.9701142465682758 -1.148415218248042
H 2.284899144507202 -1.9297784416885562 -1.6866976006259542


--Link1--
%nprocshared=4
%mem=8GB
%Oldchk=ZLSMCQSGRWNEGX-UHFFFAOYSA-N_conf_0_0.chk
%Chk=ZLSMCQSGRWNEGX-UHFFFAOYSA-N_conf_0_1.chk
# freq B3LYP/6-31G** SCRF=(Solvent=water) volume NMR pop=NPA density=current Geom=AllCheck Guess=Read


--Link1--
%nprocshared=4
%mem=8GB
%Oldchk=ZLSMCQSGRWNEGX-UHFFFAOYSA-N_conf_0_1.chk
%Chk=ZLSMCQSGRWNEGX-UHFFFAOYSA-N_conf_0_2.chk
# TD(NStates=10, Root=1) B3LYP/6-31G** SCRF=(Solvent=water) volume pop=NPA density=current Geom=AllCheck Guess=Read



