%nprocshared=3
%mem=6GB
%Chk=VOZKAJLKRJDJLL-UHFFFAOYSA-N_conf_0_0.chk
# opt=CalcFc B3LYP/6-31G** SCRF=(Solvent=water) scf=xqc 

VOZKAJLKRJDJLL-UHFFFAOYSA-N_conf_0

0 1
C -2.395373845582509 0.9173092321629525 0.28409917541733837
C -0.9504012221754647 0.5112811136367523 0.19587546332314604
C 0.03487883381759234 1.3865729369137063 0.678056776384458
C 1.3895251553854304 1.0627755256350373 0.5780558423247542
C 1.7885102558826556 -0.14795941266204812 0.017259062805157332
N 3.1464009621601283 -0.40474888911026535 -0.21314252926095334
C 0.8078118013990409 -0.9899083680089167 -0.5163445541078174
C -0.5615676727000319 -0.7144496356337237 -0.37094209014604174
N -1.4936219628054792 -1.5616309573645712 -0.9946923514296836
H -2.509495658409823 1.9064965638553732 0.7402497290435818
H -2.8399756512717764 0.9626425984916643 -0.7152993361987992
H -2.9524299153301325 0.2045397839258048 0.9006297814005687
H -0.2446423878486196 2.343177103514548 1.1134085931776012
H 2.130384951561617 1.7763693351674217 0.9276441416643498
H 3.7666997192906013 0.05328600433312316 0.4466841924553618
H 3.362083677185312 -1.3896769487863838 -0.3283318345990369
H 1.114267668235265 -1.883439738176253 -1.0531113336738571
H -2.4242468428590778 -1.5148276990895944 -0.5949559896039303
H -1.168807865934726 -2.5178085488046733 -1.0951427389762176


--Link1--
%nprocshared=3
%mem=6GB
%Oldchk=VOZKAJLKRJDJLL-UHFFFAOYSA-N_conf_0_0.chk
%Chk=VOZKAJLKRJDJLL-UHFFFAOYSA-N_conf_0_1.chk
# freq B3LYP/6-31G** SCRF=(Solvent=water) volume NMR pop=NPA density=current Geom=AllCheck Guess=Read


--Link1--
%nprocshared=3
%mem=6GB
%Oldchk=VOZKAJLKRJDJLL-UHFFFAOYSA-N_conf_0_1.chk
%Chk=VOZKAJLKRJDJLL-UHFFFAOYSA-N_conf_0_2.chk
# TD(NStates=10, Root=1) B3LYP/6-31G** SCRF=(Solvent=water) volume pop=NPA density=current Geom=AllCheck Guess=Read



