%nprocshared=3
%mem=6GB
%Chk=VOZKAJLKRJDJLL-UHFFFAOYSA-N_conf_1_0.chk
# opt=CalcFc B3LYP/6-31G** SCRF=(Solvent=water) scf=xqc 

VOZKAJLKRJDJLL-UHFFFAOYSA-N_conf_1

0 1
C -2.5235692741063342 -0.4460745316302005 -0.28869528020950525
C -1.03260458361035 -0.34236483960660397 -0.12703910388137735
C -0.27960163020670425 -1.5161995963633335 0.028607526983852518
C 1.1028568556523828 -1.4586702849725157 0.2163243895979883
C 1.7514265241490432 -0.23016152594974976 0.31219828948461176
N 3.147860941497963 -0.17385423625544516 0.41692027769116285
C 1.0115726685338815 0.9345638897846515 0.08577787568155475
C -0.36891900004561357 0.8952562460972252 -0.16830905013494815
N -1.077799147769121 2.106590250452885 -0.2507665496803515
H -3.0336006992488382 0.1913130911568422 0.44089510276079263
H -2.8757237017474564 -1.4702938274096398 -0.12558755357760729
H -2.8151463000134487 -0.1485446005333204 -1.3009675023310752
H -0.7660919415589639 -2.488603578825083 0.006376390161431886
H 1.6634498029220932 -2.384610635072514 0.3083435310543258
H 3.5514794961242466 -0.9787222462077998 0.8857061229642613
H 3.48916864748666 0.7029263292896645 0.7983126733359256
H 1.5194651325909854 1.894746200851867 0.10537876741500567
H -1.9523574030280917 2.0321086227112786 -0.7591007374642679
H -0.5118663876224069 2.880595272481379 -0.5843751698519283


--Link1--
%nprocshared=3
%mem=6GB
%Oldchk=VOZKAJLKRJDJLL-UHFFFAOYSA-N_conf_1_0.chk
%Chk=VOZKAJLKRJDJLL-UHFFFAOYSA-N_conf_1_1.chk
# freq B3LYP/6-31G** SCRF=(Solvent=water) volume NMR pop=NPA density=current Geom=AllCheck Guess=Read


--Link1--
%nprocshared=3
%mem=6GB
%Oldchk=VOZKAJLKRJDJLL-UHFFFAOYSA-N_conf_1_1.chk
%Chk=VOZKAJLKRJDJLL-UHFFFAOYSA-N_conf_1_2.chk
# TD(NStates=10, Root=1) B3LYP/6-31G** SCRF=(Solvent=water) volume pop=NPA density=current Geom=AllCheck Guess=Read



