%nprocshared=3
%mem=6GB
%Chk=AHLPHDHHMVZTML-BYPYZUCNSA-N_conf_2_0.chk
# opt=CalcFc B3LYP/6-31G** SCRF=(Solvent=water) scf=xqc 

AHLPHDHHMVZTML-BYPYZUCNSA-N_conf_2

0 1
N -2.3471067003827537 -1.4186136159647365 -0.5441605270101587
C -1.2523018115438806 -0.59753124334835 0.03119767083161369
C -0.22617753781612462 -0.3238197850080178 -1.0755912816438113
C 1.0626745272036984 0.37779783822726354 -0.626704183247401
C 1.8668937207712153 -0.42613583546492056 0.39529532469084133
N 3.126846262249155 0.2406963588456791 0.7064870521587886
C -1.8405487350995289 0.7038886011598103 0.5896952706826798
O -1.0823222418324543 1.258358401010533 1.554794081030933
O -2.8888598563783603 1.2299906457187346 0.246956739321595
H -2.844841235925245 -0.8444012885931456 -1.2303945228101365
H -3.0397830798630396 -1.591638316925373 0.18652932108031783
H -0.8215620019874363 -1.1744005305211718 0.8549142498285628
H -0.6875170876629423 0.2946303178271458 -1.8575904203109408
H 0.05298958632751611 -1.2718253562580428 -1.5550317260480513
H 0.8311748098692298 1.3727418283019555 -0.22927333799037913
H 1.6798731370164042 0.5432921538624969 -1.519788951948811
H 1.3049689956636676 -0.5476428991932176 1.3259282552369078
H 2.0813054985809605 -1.427489628311209 0.007091942631856364
H 2.9392996533734492 1.1772931552104382 1.0627350515812302
H 3.6685614667363904 0.3679862838348367 -0.1476833404470889
H -1.5835673693001133 2.0568229155892226 1.8245933323814503


--Link1--
%nprocshared=3
%mem=6GB
%Oldchk=AHLPHDHHMVZTML-BYPYZUCNSA-N_conf_2_0.chk
%Chk=AHLPHDHHMVZTML-BYPYZUCNSA-N_conf_2_1.chk
# freq B3LYP/6-31G** SCRF=(Solvent=water) volume NMR pop=NPA density=current Geom=AllCheck Guess=Read


--Link1--
%nprocshared=3
%mem=6GB
%Oldchk=AHLPHDHHMVZTML-BYPYZUCNSA-N_conf_2_1.chk
%Chk=AHLPHDHHMVZTML-BYPYZUCNSA-N_conf_2_2.chk
# TD(NStates=10, Root=1) B3LYP/6-31G** SCRF=(Solvent=water) volume pop=NPA density=current Geom=AllCheck Guess=Read



