%nprocshared=4
%mem=8GB
%Chk=QNGVNLMMEQUVQK-UHFFFAOYSA-N_conf_3_0.chk
# opt=CalcFc B3LYP/6-31G** SCRF=(Solvent=water) scf=xqc 

QNGVNLMMEQUVQK-UHFFFAOYSA-N_conf_3

0 1
N 4.235339658171484 0.0652468082963422 -0.2650116854377252
C 2.8415439000443694 0.13140017473861756 -0.15305441161333194
C 2.215820802832705 -0.1843270252955184 1.0531766175952069
C 0.8208496218114926 -0.23316603081158915 1.1407199389614218
C 0.020652036214266086 -0.011018475836662552 0.01464881859415999
N -1.382940749628654 -0.07631190173837896 0.16640281897948012
C -1.9760497821644667 -1.2213830701905848 -0.5568973133053687
C -1.6012406959748393 -2.551389565098657 0.08449606802021926
C -2.0469007379242403 1.21201515276175 -0.12297303374278287
C -1.7243371562669574 2.2624624721227407 0.9323498323884224
C 0.6539946168961597 0.2445630764706661 -1.2067098221635824
C 2.050365033014505 0.29402676567276603 -1.2913840530769676
H 4.608070736884076 0.601489323864669 -1.0417709941284088
H 4.721972276904469 0.25682953811785714 0.6049982516105482
H 2.8054025732671843 -0.3943823833327478 1.940722049085671
H 0.3496707088476527 -0.46003193324159314 2.093541444922598
H -1.7052706567755997 -1.2163477467643453 -1.6197919131238252
H -3.069433695202889 -1.1401324717975463 -0.5144114000952502
H -2.1480329848068114 -3.3684928688735285 -0.396871480077381
H -1.848393399143559 -2.556431959576635 1.1512994217889079
H -0.5322812059602751 -2.7632660403982694 -0.016909170942490313
H -3.1337574777094677 1.0624360572257643 -0.1072411694725702
H -1.7988004795799946 1.583167114708488 -1.1247673583409112
H -1.9536874737371879 1.8925629102432755 1.937236542980631
H -2.3169071577700224 3.1660819226697074 0.7572793772947922
H -0.6681700916197807 2.5487516020333776 0.9098148684517836
H 0.06936289511850031 0.39368562767875614 -2.1092092181020057
H 2.513158884257546 0.4619629263512313 -2.2596830270511394


--Link1--
%nprocshared=4
%mem=8GB
%Oldchk=QNGVNLMMEQUVQK-UHFFFAOYSA-N_conf_3_0.chk
%Chk=QNGVNLMMEQUVQK-UHFFFAOYSA-N_conf_3_1.chk
# freq B3LYP/6-31G** SCRF=(Solvent=water) volume NMR pop=NPA density=current Geom=AllCheck Guess=Read


--Link1--
%nprocshared=4
%mem=8GB
%Oldchk=QNGVNLMMEQUVQK-UHFFFAOYSA-N_conf_3_1.chk
%Chk=QNGVNLMMEQUVQK-UHFFFAOYSA-N_conf_3_2.chk
# TD(NStates=10, Root=1) B3LYP/6-31G** SCRF=(Solvent=water) volume pop=NPA density=current Geom=AllCheck Guess=Read



