%nprocshared=4
%mem=8GB
%Chk=QNGVNLMMEQUVQK-UHFFFAOYSA-N_conf_2_0.chk
# opt=CalcFc B3LYP/6-31G** SCRF=(Solvent=water) scf=xqc 

QNGVNLMMEQUVQK-UHFFFAOYSA-N_conf_2

0 1
N 4.486947561599216 -0.773970464205328 -0.22077373814966433
C 3.15210270395196 -0.35605728969755923 -0.1847013413096491
C 2.4237167268819433 -0.4199656933848784 1.0011945858132505
C 1.055562916736322 -0.1137646747862083 1.0225510050050044
C 0.3619863065671522 0.21774985945386996 -0.14898702809453251
N -1.0090646274003945 0.5296345664917262 -0.17066058711773047
C -1.5988028058654176 1.0575877652333874 1.0696917982974639
C -2.85216428331958 1.878602045404378 0.7980906598904288
C -1.8266677229049402 -0.38780120060199597 -0.9896436744078924
C -2.0461109988376287 -1.7396151000227211 -0.3223908791485031
C 1.09876460467487 0.2227777479161205 -1.3426486494828351
C 2.466086996357757 -0.08113386765250362 -1.3649636142842023
H 4.978322676814716 -0.6418993474871969 0.6574051693084859
H 5.006193368315313 -0.4059465499708475 -1.0115320504241954
H 2.9107460197249484 -0.7107543221672208 1.9276846212726384
H 0.5387636673511813 -0.17807205965139092 1.9749747695879347
H -0.8864722047469079 1.7317545165841082 1.562920213305521
H -1.8292474525241837 0.24964512378846176 1.7733944860770334
H -2.6680315638434373 2.640002206776451 0.03312258400108902
H -3.6819085664552227 1.2495446616618942 0.4622627677478382
H -3.1758677779873534 2.3840264954465065 1.713782671338187
H -1.3791732248121666 -0.5445304258155472 -1.9780694228410858
H -2.799960615818089 0.07035954982882486 -1.1953815014157723
H -2.6483114828245053 -2.383510338796829 -0.9714998639057113
H -2.5769716226455635 -1.6366477073823567 0.6287746454634068
H -1.0986903405056694 -2.2518506798383067 -0.12782970056388226
H 0.6116650039666144 0.48332406364062225 -2.278576012619798
H 2.986586737548469 -0.0894888807655888 -2.3181919133429756


--Link1--
%nprocshared=4
%mem=8GB
%Oldchk=QNGVNLMMEQUVQK-UHFFFAOYSA-N_conf_2_0.chk
%Chk=QNGVNLMMEQUVQK-UHFFFAOYSA-N_conf_2_1.chk
# freq B3LYP/6-31G** SCRF=(Solvent=water) volume NMR pop=NPA density=current Geom=AllCheck Guess=Read


--Link1--
%nprocshared=4
%mem=8GB
%Oldchk=QNGVNLMMEQUVQK-UHFFFAOYSA-N_conf_2_1.chk
%Chk=QNGVNLMMEQUVQK-UHFFFAOYSA-N_conf_2_2.chk
# TD(NStates=10, Root=1) B3LYP/6-31G** SCRF=(Solvent=water) volume pop=NPA density=current Geom=AllCheck Guess=Read



