%nprocshared=4
%mem=8GB
%Chk=ICNFHJVPAJKPHW-UHFFFAOYSA-N_conf_2_0.chk
# opt=CalcFc B3LYP/6-31G** SCRF=(Solvent=water) scf=xqc 

ICNFHJVPAJKPHW-UHFFFAOYSA-N_conf_2

0 1
N 4.781862461453114 1.0174922277727991 0.003895204293013563
C 3.6661969509541588 0.18028686908355737 -0.10307682588810528
C 2.679156444571008 0.44031305510621715 -1.055830459701628
C 1.5037535936530722 -0.31754299394445573 -1.0939210689900802
C 1.27657110397914 -1.315666162334394 -0.14294396446930835
S -0.20613406858691394 -2.306969674262288 -0.16193558674429695
C -1.4895935120406105 -1.0684037708892822 -0.14989267045077947
C -2.476023988380449 -1.096302750504932 -1.1384586279746292
C -3.496607914006953 -0.13934568270560277 -1.146339255901471
C -3.576108160395387 0.8279557896996654 -0.1425446861967669
N -4.525441315766618 1.8522902201477833 -0.22360701679165687
C -2.5609558516046653 0.882503472454066 0.8145826299138208
C -1.5385974594602456 -0.07245668459900216 0.8288343213203718
C 2.239991064531343 -1.545253298209419 0.8420417293875991
C 3.414017276303581 -0.7849424831173942 0.8738233512433834
H 5.051619129333697 1.455319403144036 -0.8714388293606966
H 5.570640453401856 0.5919267748415034 0.48052992408470513
H 2.8153895638477717 1.2363772612838269 -1.782955411920388
H 0.7653510935149308 -0.10750263858067997 -1.8637177465788293
H -2.4525829057183772 -1.8517107694449213 -1.9200707536541939
H -4.231853922364378 -0.15995079284141075 -1.946258316228692
H -5.375985634572314 1.5866023407099017 -0.7098592362791939
H -4.715475002640196 2.306664070973174 0.6641442654809436
H -2.5557147676433365 1.6697293897657686 1.563739883692046
H -0.7765556139958636 -0.017961336302063213 1.6023100402564499
H 2.081090743585241 -2.3058291273325437 1.6025567924684316
H 4.13199023804711 -0.9576227099139886 1.6710549104321373


--Link1--
%nprocshared=4
%mem=8GB
%Oldchk=ICNFHJVPAJKPHW-UHFFFAOYSA-N_conf_2_0.chk
%Chk=ICNFHJVPAJKPHW-UHFFFAOYSA-N_conf_2_1.chk
# freq B3LYP/6-31G** SCRF=(Solvent=water) volume NMR pop=NPA density=current Geom=AllCheck Guess=Read


--Link1--
%nprocshared=4
%mem=8GB
%Oldchk=ICNFHJVPAJKPHW-UHFFFAOYSA-N_conf_2_1.chk
%Chk=ICNFHJVPAJKPHW-UHFFFAOYSA-N_conf_2_2.chk
# TD(NStates=10, Root=1) B3LYP/6-31G** SCRF=(Solvent=water) volume pop=NPA density=current Geom=AllCheck Guess=Read



