%nprocshared=4
%mem=8GB
%Chk=ZBMISJGHVWNWTE-UHFFFAOYSA-N_conf_2_0.chk
# opt=CalcFc B3LYP/6-31G** SCRF=(Solvent=water) scf=xqc 

ZBMISJGHVWNWTE-UHFFFAOYSA-N_conf_2

0 1
N 4.891105649915435 0.4307629813822117 -0.9595518461032708
C 3.651343897472446 0.17622191449319521 -0.3619973716765237
C 2.6095617820634502 1.1007381878939635 -0.48154145112054875
C 1.3331959982906367 0.8068827713419606 0.007153188766594406
C 1.0779168249291147 -0.44501134728776676 0.5677682422128459
O -0.1441566193294082 -0.7931863623901289 1.0959375400334788
C -1.261951936950771 -0.5009037987036958 0.3470328964751801
C -1.373048369932258 -0.844995276049935 -1.0008041100719463
C -2.5357374034147053 -0.5216108192067804 -1.696687956938909
C -3.5924631175532746 0.1108138873137043 -1.0355791408517385
C -3.52101535093497 0.38167228941089515 0.3343668945341602
N -4.538667948984278 1.1111614808243095 0.9620189745505188
C -2.3294126949289304 0.10924130908153731 1.0104034479079451
C 2.099330750922447 -1.387958907918954 0.6604233694214471
C 3.3725521726107424 -1.0860859632436148 0.1697223637707245
H 5.653761864401431 -0.11338236045680224 -0.5688150531573192
H 5.117657595551946 1.4179956513605019 -1.0276173124576038
H 2.7838950994366 2.0647094100616874 -0.9518035459211373
H 0.5484919076261664 1.5548871593428526 -0.06231769657730331
H -0.5581429370932458 -1.3469891053939638 -1.5145489618339316
H -2.617919952953251 -0.75299732343592 -2.7552456007345496
H -4.4795647153769345 0.38420980869966 -1.6009201161835733
H -4.564374773267499 0.9919370307647278 1.9700686889768833
H -5.452164198965817 0.988366747629429 0.5366046962595048
H -2.2196444920219167 0.37331107934585217 2.0580713255753627
H 1.9018439643339387 -2.363349082597451 1.0956217317123302
H 4.147607004152837 -1.8464413622617242 0.21087228619024898


--Link1--
%nprocshared=4
%mem=8GB
%Oldchk=ZBMISJGHVWNWTE-UHFFFAOYSA-N_conf_2_0.chk
%Chk=ZBMISJGHVWNWTE-UHFFFAOYSA-N_conf_2_1.chk
# freq B3LYP/6-31G** SCRF=(Solvent=water) volume NMR pop=NPA density=current Geom=AllCheck Guess=Read


--Link1--
%nprocshared=4
%mem=8GB
%Oldchk=ZBMISJGHVWNWTE-UHFFFAOYSA-N_conf_2_1.chk
%Chk=ZBMISJGHVWNWTE-UHFFFAOYSA-N_conf_2_2.chk
# TD(NStates=10, Root=1) B3LYP/6-31G** SCRF=(Solvent=water) volume pop=NPA density=current Geom=AllCheck Guess=Read



