%nprocshared=4
%mem=8GB
%Chk=ZBMISJGHVWNWTE-UHFFFAOYSA-N_conf_3_0.chk
# opt=CalcFc B3LYP/6-31G** SCRF=(Solvent=water) scf=xqc 

ZBMISJGHVWNWTE-UHFFFAOYSA-N_conf_3

0 1
N 4.948586598923387 0.37874992656941237 0.7746539826906346
C 3.6405449295444137 0.10779121368924818 0.35730299760621886
C 3.3824382429202875 -0.9730574451270214 -0.490596612552303
C 2.1012874040135023 -1.1842975040719188 -1.0076117692021072
C 1.073196856764104 -0.2960252623084873 -0.7001947342577237
O -0.155379975873749 -0.5401743020132915 -1.269553613242873
C -1.2637730394916478 -0.4012536216725676 -0.4645563750642071
C -1.354568045573538 -0.9919592751265836 0.7965606922447864
C -2.532937124537826 -0.8668815103938285 1.5291911077748879
C -3.611209143228781 -0.1511019054931017 1.0012068741504299
C -3.5149664445699056 0.4747992179554746 -0.24546058558155634
N -4.641097511889866 1.0780349000485347 -0.8187262142088679
C -2.352216550552339 0.2934632863651461 -0.9979990607588103
C 1.3369257018488774 0.8315154372148958 0.07795893942597378
C 2.621164155709367 1.0352689597324343 0.5915455285160298
H 5.002413833662275 0.9618491703340801 1.6037847311521378
H 5.536404896845119 -0.4459005512896924 0.8441157316373413
H 4.179539047024699 -1.6606753594377177 -0.7597795950757248
H 1.9103044183417408 -2.0345512707706086 -1.6561087816706088
H -0.5270291152912873 -1.5680089791208884 1.200396138799809
H -2.621544721134712 -1.342589429659854 2.502142863285006
H -4.534578813188668 -0.0925397465269765 1.5715985137751707
H -4.420985959377718 1.7492606765678516 -1.547974870414641
H -5.301208852597907 1.445521495485366 -0.1409571773117268
H -2.280766063955082 0.6967021588512191 -2.0039031129929934
H 0.559935022841879 1.5648625999843115 0.27309446133054954
H 2.8195202528233194 1.931197120214568 1.1735511979021926


--Link1--
%nprocshared=4
%mem=8GB
%Oldchk=ZBMISJGHVWNWTE-UHFFFAOYSA-N_conf_3_0.chk
%Chk=ZBMISJGHVWNWTE-UHFFFAOYSA-N_conf_3_1.chk
# freq B3LYP/6-31G** SCRF=(Solvent=water) volume NMR pop=NPA density=current Geom=AllCheck Guess=Read


--Link1--
%nprocshared=4
%mem=8GB
%Oldchk=ZBMISJGHVWNWTE-UHFFFAOYSA-N_conf_3_1.chk
%Chk=ZBMISJGHVWNWTE-UHFFFAOYSA-N_conf_3_2.chk
# TD(NStates=10, Root=1) B3LYP/6-31G** SCRF=(Solvent=water) volume pop=NPA density=current Geom=AllCheck Guess=Read



