%nprocshared=3
%mem=6GB
%Chk=YFOOEYJGMMJJLS-UHFFFAOYSA-N_conf_0_0.chk
# opt=CalcFc B3LYP/6-31G** SCRF=(Solvent=water) scf=xqc 

YFOOEYJGMMJJLS-UHFFFAOYSA-N_conf_0

0 1
N -2.0552376761395705 -1.5463154837033664 -0.29237771525904027
C -0.6568261542912379 -1.2622609845021948 -0.38312428388737235
C -0.14953165620360082 0.04235658675461662 -0.07702239887529837
C 1.257502278968393 0.18385798293809244 0.06819102894413857
C 1.8161006472923866 1.431004654231047 0.3896411498754487
C 1.014202201011772 2.555449598103866 0.5575144175845501
C -0.36106894714147053 2.4495140880331876 0.39542337763638613
C -0.9530055300563618 1.214049433141405 0.09878521583810743
N -2.328643056705213 1.2146451393356448 -0.22775532621853362
C 2.1032009060225842 -0.9228291428297776 -0.10472216518847588
C 1.5886479959881192 -2.1819623767051253 -0.3965111925342079
C 0.21521052365891247 -2.354840553435397 -0.5115035442572317
H -2.280423425763836 -1.7091572269007256 0.6900979594344618
H -2.2879674086256974 -2.3823475627688415 -0.8247589903038794
H 2.8927664476871806 1.5392456155374057 0.5045269787400077
H 1.4631248943669597 3.5174652269595716 0.7877837005885602
H -0.9757946444232783 3.34218644639781 0.4727699817757547
H -2.8942398453202314 1.8136227471352475 0.35969806962234907
H -2.67293719487675 0.25142781955277554 -0.2966835267941863
H 3.181190564800967 -0.8120968576510552 -0.0037978055986226614
H 2.257705522903467 -3.030225873602184 -0.5122807148872076
H -0.17397644315328534 -3.3527892760218507 -0.6938942162357792


--Link1--
%nprocshared=3
%mem=6GB
%Oldchk=YFOOEYJGMMJJLS-UHFFFAOYSA-N_conf_0_0.chk
%Chk=YFOOEYJGMMJJLS-UHFFFAOYSA-N_conf_0_1.chk
# freq B3LYP/6-31G** SCRF=(Solvent=water) volume NMR pop=NPA density=current Geom=AllCheck Guess=Read


--Link1--
%nprocshared=3
%mem=6GB
%Oldchk=YFOOEYJGMMJJLS-UHFFFAOYSA-N_conf_0_1.chk
%Chk=YFOOEYJGMMJJLS-UHFFFAOYSA-N_conf_0_2.chk
# TD(NStates=10, Root=1) B3LYP/6-31G** SCRF=(Solvent=water) volume pop=NPA density=current Geom=AllCheck Guess=Read



