%nprocshared=3
%mem=6GB
%Chk=YFOOEYJGMMJJLS-UHFFFAOYSA-N_conf_1_0.chk
# opt=CalcFc B3LYP/6-31G** SCRF=(Solvent=water) scf=xqc 

YFOOEYJGMMJJLS-UHFFFAOYSA-N_conf_1

0 1
N -1.2211194795965215 -2.292137141489078 0.31639346633139304
C -0.05113548218863574 -1.4972970898003635 0.17657878877155397
C -0.1301138967146981 -0.07569609408704814 0.009914324035121411
C 1.0955194640057921 0.6373436988091572 -0.08349359747399417
C 1.0986240426718485 2.040129523246549 -0.1319187450527126
C -0.08935208384904472 2.7624403337587626 -0.0860944821289447
C -1.3028376801420831 2.088418636186592 -0.04364156090563472
C -1.3409687770196514 0.6874094190288718 -0.07048761553275956
N -2.6155199609731707 0.060082925732149885 -0.02400049558148144
C 2.3167209592756524 -0.053174445164565515 -0.1283744726672926
C 2.3572370290111078 -1.4430467871638337 -0.08674261445978503
C 1.1770796469024993 -2.16158108966259 0.05322854202529726
H -1.0234288890292191 -3.195001846381939 0.7374274297609948
H -1.8925157549454334 -1.7720747241999262 0.8911179473031914
H 2.037777892670256 2.5870525101515995 -0.18844569680061057
H -0.06853718652473961 3.848634924683562 -0.09415295723991793
H -2.2249662894707467 2.6623130640009776 -0.015222412446022234
H -2.5580471180667086 -0.8171440966650334 -0.5519360022541226
H -3.3483163895376733 0.6516396235105861 -0.4042494873325553
H 3.2546429063178937 0.4919355654936776 -0.21490291564928604
H 3.308472461010119 -1.9637289920711825 -0.15275859008773615
H 1.2207845861927245 -3.246517917916866 0.09176114738521177


--Link1--
%nprocshared=3
%mem=6GB
%Oldchk=YFOOEYJGMMJJLS-UHFFFAOYSA-N_conf_1_0.chk
%Chk=YFOOEYJGMMJJLS-UHFFFAOYSA-N_conf_1_1.chk
# freq B3LYP/6-31G** SCRF=(Solvent=water) volume NMR pop=NPA density=current Geom=AllCheck Guess=Read


--Link1--
%nprocshared=3
%mem=6GB
%Oldchk=YFOOEYJGMMJJLS-UHFFFAOYSA-N_conf_1_1.chk
%Chk=YFOOEYJGMMJJLS-UHFFFAOYSA-N_conf_1_2.chk
# TD(NStates=10, Root=1) B3LYP/6-31G** SCRF=(Solvent=water) volume pop=NPA density=current Geom=AllCheck Guess=Read



