%nprocshared=8
%mem=16GB
%Chk=RRZROWKVNHGBPP-UHFFFAOYSA-N_conf_3_0.chk
# opt=CalcFc B3LYP/6-31G** SCRF=(Solvent=water) scf=xqc 

RRZROWKVNHGBPP-UHFFFAOYSA-N_conf_3

0 1
C 9.93693336037335 -0.9601931488782287 0.5951736132370289
C 8.468289704625228 -0.6752267146830777 0.4994523774073672
C 7.5252003095264834 -1.616597101822242 0.9184159676450705
C 6.15421777457068 -1.352368734907858 0.799858333998508
C 5.689480187620351 -0.13913540008208858 0.27962363499467424
N 4.336597377574907 0.14763473569679322 0.08536678567668804
C 3.324037497464581 -0.5512660387470945 0.8806971923190198
C 1.9556258347868096 0.1420626444163502 0.7684594880667157
O 1.4233172758639572 -0.022273359334239216 -0.5481882612467779
C 0.3090054584888245 0.8226863666706509 -0.829526403510778
C -0.9408456551715999 0.4714719890380601 -0.020143979077267088
O -2.060027143422877 1.252582351736829 -0.44116598214108793
C -2.8290381973244165 0.5980775963913956 -1.462036942193752
C -3.958678629421052 1.5302684887758855 -1.9212823878757874
N -4.855530710065295 1.879314092946088 -0.8147000582756372
C -5.771976947727881 0.9482690419930477 -0.31302519077184465
C -6.264566286067465 1.1336044290706275 0.9863371712627071
C -7.230485556606458 0.28156045749032016 1.5329612232438266
C -7.763091587086002 -0.7604064800535493 0.772724078830231
C -8.775029877970418 -1.6923068052767913 1.3666153879328304
C -7.305375898681915 -0.9366299760739223 -0.5347160665516171
C -6.3369790002297695 -0.07928006836378942 -1.0739942006073042
C 6.645410171138291 0.7734332707440423 -0.18505003578888124
C 8.01678733086301 0.5183431722426189 -0.06890416365945193
H 10.477450645708286 -0.07517391995807705 0.9470489234347845
H 10.138961035187041 -1.7697733404005063 1.3056002669425426
H 10.32689779830255 -1.252923065436645 -0.3856025341304822
H 7.845099924029539 -2.5714762857780182 1.3298194645915586
H 5.459402737759042 -2.124741476180765 1.1132312227903371
H 4.152616081010987 1.1394830899248491 -0.03904593516981389
H 3.2352190550527924 -1.5850878296539004 0.5269116474914892
H 3.6155005722946494 -0.5560825280260265 1.9382067292196608
H 1.2679654640444213 -0.32462513478656485 1.48086516183085
H 2.05096489462887 1.2063220583807388 1.0089539336361126
H 0.0943338903088955 0.7174057772312235 -1.898218338965116
H 0.5848177399637311 1.874476261126527 -0.6826241206049072
H -0.7688851984089278 0.71026804567356 1.0345497366035503
H -1.1565526309659313 -0.6031683719200421 -0.06249212847547203
H -2.184491964772365 0.3655008120054029 -2.316863980787743
H -3.2366152977315346 -0.3362877662893437 -1.0608879472418344
H -3.512316249412496 2.468973269559279 -2.272518120261731
H -4.499605965366569 1.107422755972663 -2.773091341788213
H -4.31466427789223 2.299924303386021 -0.05781261409124721
H -5.89050161182232 1.9528046924104632 1.5956391052831713
H -7.567002271419105 0.44741878963878734 2.5526686946305306
H -9.373628229666375 -2.17682754491362 0.5873259909476183
H -8.271686661996242 -2.467032662929093 1.9537612951679355
H -9.467994602948513 -1.147463311838115 2.0162635836559426
H -7.707356889562519 -1.735324634795251 -1.1538027292473696
H -6.04487545031014 -0.23780189899968215 -2.1060586392725362
H 6.327493223473273 1.7044723624344573 -0.6474752939679483
H 8.726177447389079 1.2556927451716495 -0.4365152605510651


--Link1--
%nprocshared=8
%mem=16GB
%Oldchk=RRZROWKVNHGBPP-UHFFFAOYSA-N_conf_3_0.chk
%Chk=RRZROWKVNHGBPP-UHFFFAOYSA-N_conf_3_1.chk
# freq B3LYP/6-31G** SCRF=(Solvent=water) volume NMR pop=NPA density=current Geom=AllCheck Guess=Read


--Link1--
%nprocshared=8
%mem=16GB
%Oldchk=RRZROWKVNHGBPP-UHFFFAOYSA-N_conf_3_1.chk
%Chk=RRZROWKVNHGBPP-UHFFFAOYSA-N_conf_3_2.chk
# TD(NStates=10, Root=1) B3LYP/6-31G** SCRF=(Solvent=water) volume pop=NPA density=current Geom=AllCheck Guess=Read



