%nprocshared=8
%mem=16GB
%Chk=RRZROWKVNHGBPP-UHFFFAOYSA-N_conf_4_0.chk
# opt=CalcFc B3LYP/6-31G** SCRF=(Solvent=water) scf=xqc 

RRZROWKVNHGBPP-UHFFFAOYSA-N_conf_4

0 1
C -8.811333406339973 -0.6639220760281557 0.05856510975035076
C -7.459155049810304 -0.019334501083114436 0.12557283654553314
C -7.2496686189698005 1.098645289102231 0.9333845034837004
C -5.98380594125427 1.6892678417433769 1.0103315590043906
C -4.885223077007411 1.1646845321688724 0.31576882395191264
N -3.665690175671937 1.8381350536028478 0.38987513847448674
C -2.411442272822493 1.1999512020054326 -5.3516989486639116e-05
C -1.9575197383361147 0.13011820059160017 1.0021916894613794
O -0.6849123532488123 -0.41266848051580196 0.6348096210545278
C -0.805285847750701 -1.53595481269947 -0.2478638866744357
C 0.5843064530210336 -2.001885045190836 -0.6890760770120459
O 1.0907188877022616 -1.2618573531057387 -1.8044975993378785
C 1.438094694120714 0.09925350460715607 -1.5399930164477567
C 2.578262422456606 0.2885239216291776 -0.5241914741364492
N 3.736508262479188 -0.5249145582123064 -0.8929462130524267
C 5.00081057038928 -0.23804497357853296 -0.38796528735122915
C 5.2139498053573945 0.4670013961837269 0.7999921576669204
C 6.5056403541424945 0.6799861245993056 1.2972187042371128
C 7.61825107114415 0.16028760708241205 0.6318789619322119
C 9.002308191385723 0.41669539937373934 1.1466104171634928
C 7.41627686946696 -0.56699396848745 -0.5427898355375105
C 6.122366917963455 -0.7763862890194766 -1.030638343353223
C -5.115184575285406 0.06135081999087694 -0.5108613714442823
C -6.379148093646242 -0.5368201761909493 -0.5925561028679851
H -8.899140418669587 -1.3143925559302296 -0.8170844940894331
H -9.595472194456216 0.09493664307478424 -0.02071601705108281
H -8.984246629540147 -1.2648577273215902 0.9554433191198093
H -8.071466930213738 1.5280068321498932 1.5015989719592966
H -5.863874154983727 2.575497979911322 1.6280979551685628
H -3.5832247223631644 2.412842619323317 1.2244042058702556
H -1.638115982662488 1.9772167954408872 -0.04761619584336127
H -2.462343252515354 0.8043606021576108 -1.0203192301741157
H -1.833982432334595 0.592616425810189 1.9876906317282912
H -2.699370264308337 -0.6688617250371599 1.1168121251365128
H -1.298701662827011 -2.345405409748292 0.3014370801878306
H -1.4075913036737453 -1.2650152846266955 -1.1213389404296485
H 0.5047540939192052 -3.036531087726567 -1.038214698851988
H 1.3003594361914705 -1.9915682696558235 0.13868491689102036
H 1.758877415128404 0.5166014126809925 -2.5015164316653635
H 0.5519696682558566 0.6679650994201848 -1.243217307008015
H 2.839608111577751 1.353427178015986 -0.5086707743887464
H 2.244629723759372 0.006569050806716507 0.4800111483228832
H 3.731818259069901 -0.8272070256722616 -1.8636400494291454
H 4.377112087996978 0.8583927032266212 1.3708816933438712
H 6.631377375086347 1.2473790170935761 2.2171134639985857
H 9.36303483114003 1.3838374755738703 0.7852315713266959
H 9.695239951485048 -0.36302511648439756 0.8145500155465636
H 9.014551598871726 0.4192266051441621 2.2412605426019625
H 8.259938721753603 -0.9845103216918637 -1.0865012302591421
H 5.998098780409343 -1.3699217341547338 -1.9338358813004144
H -4.320812067583734 -0.3599977990433737 -1.1167953114620415
H -6.512153388002466 -1.4027010413053682 -1.2361238195157322


--Link1--
%nprocshared=8
%mem=16GB
%Oldchk=RRZROWKVNHGBPP-UHFFFAOYSA-N_conf_4_0.chk
%Chk=RRZROWKVNHGBPP-UHFFFAOYSA-N_conf_4_1.chk
# freq B3LYP/6-31G** SCRF=(Solvent=water) volume NMR pop=NPA density=current Geom=AllCheck Guess=Read


--Link1--
%nprocshared=8
%mem=16GB
%Oldchk=RRZROWKVNHGBPP-UHFFFAOYSA-N_conf_4_1.chk
%Chk=RRZROWKVNHGBPP-UHFFFAOYSA-N_conf_4_2.chk
# TD(NStates=10, Root=1) B3LYP/6-31G** SCRF=(Solvent=water) volume pop=NPA density=current Geom=AllCheck Guess=Read



