%nprocshared=8
%mem=16GB
%Chk=RRZROWKVNHGBPP-UHFFFAOYSA-N_conf_0_0.chk
# opt=CalcFc B3LYP/6-31G** SCRF=(Solvent=water) scf=xqc 

RRZROWKVNHGBPP-UHFFFAOYSA-N_conf_0

0 1
C -7.271352555024331 -3.030977582220147 1.4808086973934447
C -6.352834227720186 -2.077868357332192 0.7765949255338491
C -6.135208701232925 -0.7954764646895199 1.2856267981139815
C -5.260967949080591 0.08932920204612463 0.6408038737522436
C -4.550733315006008 -0.2951080545234915 -0.5006141874428083
N -3.7257075923721246 0.5676465347264624 -1.2254236736042765
C -3.1480771842183484 1.7431550062826253 -0.5744761579938065
C -2.0975199374521143 2.380904851880168 -1.4972730898373905
O -1.0643713314222178 1.4711916798733478 -1.8947789002732827
C -0.19467913140818915 1.0129132164143508 -0.8559649442767653
C 0.5696541282267097 2.1203538905118453 -0.11817952180505495
O 1.1811671516612847 3.0919822316804044 -0.9682126125649089
C 2.1764280371886104 2.600037455678252 -1.8703884247247586
C 3.4325551019317935 2.045498238901668 -1.1745170998847911
N 3.257384158363974 0.6294133366704168 -0.829442440675937
C 4.286241161090746 -0.05508882284064559 -0.170135108869445
C 4.2320395204951575 -1.4557155633025451 -0.1336108408560587
C 5.1855640038635915 -2.207548098989343 0.5614360471247588
C 6.215825027762219 -1.5717358185427526 1.2559234760836977
C 7.219722390392122 -2.3708929511085923 2.031361229103321
C 6.249780263982238 -0.17557204820157107 1.2717342210159586
C 5.290153293937802 0.5703076494612224 0.5750831529581097
C -4.796525182526073 -1.5750928049640647 -1.0148328881602955
C -5.670408887682858 -2.463924330843077 -0.37796463657149043
H -8.109979844675227 -2.496123229889419 1.939259214944271
H -6.724699998862723 -3.570085933622568 2.2610471564704158
H -7.694682153092895 -3.758536293442868 0.7803821258053231
H -6.657230154462545 -0.4641273951380642 2.1804553553148964
H -5.153973151158012 1.087863698114337 1.052368308467111
H -3.0306359794886357 0.06735887349971138 -1.7805567870805052
H -3.928831136416987 2.4837407732573813 -0.36779581770351205
H -2.6810843187759112 1.4565431147437797 0.37428953157353495
H -2.5880843252214705 2.707374135335101 -2.4213852722174547
H -1.6659538959493219 3.276359598194151 -1.0392877046496343
H -0.7545990249869436 0.3973981503953086 -0.1448509833494262
H 0.5153334294401588 0.33846511055568185 -1.342693102650688
H -0.1321814143835794 2.676291258532249 0.5125717386973386
H 1.3085765458933107 1.6950028954011835 0.5679397696027779
H 1.7378189588609059 1.8812411616636122 -2.5704047299143373
H 2.4796903869447453 3.468958746799216 -2.4651525147396374
H 3.625681252258209 2.6427369737638333 -0.27690486400392816
H 4.283360055174411 2.1347936908359046 -1.859824253029048
H 2.912989984070277 0.07876195544788707 -1.6145468411121102
H 3.4324810945120245 -1.9825291669889107 -0.6489296497427582
H 5.109538804589232 -3.2924039709850015 0.560296643457867
H 8.170870713311928 -1.8346047676109425 2.109295419953774
H 7.425246561615238 -3.3244220481665914 1.5348563312866852
H 6.843488350035069 -2.5696326562553238 3.039196626084771
H 7.018931462026353 0.34800393222947495 1.8351270211693609
H 5.353908468528946 1.651476305789784 0.6363656026787736
H -4.30461827967121 -1.8939759852100222 -1.9305835304827554
H -5.8194906338688055 -3.4536613238181197 -0.8017808320403277


--Link1--
%nprocshared=8
%mem=16GB
%Oldchk=RRZROWKVNHGBPP-UHFFFAOYSA-N_conf_0_0.chk
%Chk=RRZROWKVNHGBPP-UHFFFAOYSA-N_conf_0_1.chk
# freq B3LYP/6-31G** SCRF=(Solvent=water) volume NMR pop=NPA density=current Geom=AllCheck Guess=Read


--Link1--
%nprocshared=8
%mem=16GB
%Oldchk=RRZROWKVNHGBPP-UHFFFAOYSA-N_conf_0_1.chk
%Chk=RRZROWKVNHGBPP-UHFFFAOYSA-N_conf_0_2.chk
# TD(NStates=10, Root=1) B3LYP/6-31G** SCRF=(Solvent=water) volume pop=NPA density=current Geom=AllCheck Guess=Read



