%nprocshared=6
%mem=12GB
%Chk=DKKYOQYISDAQER-UHFFFAOYSA-N_conf_3_0.chk
# opt=CalcFc B3LYP/6-31G** SCRF=(Solvent=water) scf=xqc 

DKKYOQYISDAQER-UHFFFAOYSA-N_conf_3

0 1
N -7.006598883898656 -0.7969086372335007 0.7585463673030097
C -5.846382697027443 -0.08948971289074978 0.4209285173295332
C -4.602274007107675 -0.5045891743333272 0.9017071162384522
C -3.456883959148285 0.2566278439140475 0.655198034052019
O -2.2692717685484802 -0.2194430181031873 1.1644439258134556
C -1.17076062667415 -0.18984870264716924 0.33529179324319797
C 0.021105108834154552 0.28601872992934363 0.8804921644302436
C 1.1788296872702095 0.29689387307990117 0.10338140798731157
O 2.3131063765397557 0.821086807562191 0.6819232009044074
C 3.488395367179542 0.12683309725434386 0.5026281169998396
C 3.5969734889062166 -1.2401463179525865 0.7610403390882363
C 4.81820220604537 -1.8797884421841822 0.5610005328967849
C 5.930135550641405 -1.1458267884840052 0.13826207250864492
C 5.8492060953458855 0.23868472967250257 -0.04033676840134999
N 6.937577450406283 0.9456412527838163 -0.5669369134320636
C 4.607526506952061 0.8618787848902981 0.1041180509199503
C 1.1423368755538192 -0.14503025182285179 -1.2227585832709498
C -0.0474789671537972 -0.642170318639612 -1.7570516541614212
C -1.2031009411960314 -0.6760978709777404 -0.9751693527481836
C -3.554397924803606 1.4820117338900824 -0.005575310378727151
C -4.800815010018681 1.9320145549805536 -0.435617405307554
C -5.940768139179235 1.1561196088758527 -0.20724511186974745
H -7.789727998988252 -0.6246725466922849 0.1362365762965073
H -6.851972082321564 -1.7869098332187838 0.921686472302669
H -4.51275344089496 -1.4272546023731352 1.4675448406831275
H 0.0472803612803085 0.6463709457690368 1.9045058266442811
H 2.7377791028744416 -1.8105122391922872 1.1019930939126705
H 4.904905519388487 -2.9503862030366097 0.7257307045083523
H 6.867126555315324 -1.6660093594645524 -0.04292332429202078
H 6.91024203692406 1.9418284506660308 -0.37197871793650866
H 7.838779562673201 0.5350446228717151 -0.34360509810037615
H 4.49936957998364 1.923754175873273 -0.09619833486537317
H 2.0337189900036825 -0.10676504822814473 -1.8435048645144179
H -0.07355839792974057 -1.0026867021056347 -2.782117886364411
H -2.1216532878551226 -1.0793898340815165 -1.3926956002933335
H -2.6748248113445947 2.099201630132673 -0.164711837202907
H -4.8900795926412854 2.895450072773165 -0.9303105405241353
H -6.909293885387283 1.5384646887413769 -0.5189882130629849


--Link1--
%nprocshared=6
%mem=12GB
%Oldchk=DKKYOQYISDAQER-UHFFFAOYSA-N_conf_3_0.chk
%Chk=DKKYOQYISDAQER-UHFFFAOYSA-N_conf_3_1.chk
# freq B3LYP/6-31G** SCRF=(Solvent=water) volume NMR pop=NPA density=current Geom=AllCheck Guess=Read


--Link1--
%nprocshared=6
%mem=12GB
%Oldchk=DKKYOQYISDAQER-UHFFFAOYSA-N_conf_3_1.chk
%Chk=DKKYOQYISDAQER-UHFFFAOYSA-N_conf_3_2.chk
# TD(NStates=10, Root=1) B3LYP/6-31G** SCRF=(Solvent=water) volume pop=NPA density=current Geom=AllCheck Guess=Read



