%nprocshared=6
%mem=12GB
%Chk=DKKYOQYISDAQER-UHFFFAOYSA-N_conf_1_0.chk
# opt=CalcFc B3LYP/6-31G** SCRF=(Solvent=water) scf=xqc 

DKKYOQYISDAQER-UHFFFAOYSA-N_conf_1

0 1
N 6.717199094477425 2.075687560059021 -0.21668225818399123
C 5.76209404925349 1.0528626448713365 -0.16031309544140965
C 4.482402838210436 1.2541328498691902 -0.6827274917660707
C 3.487461539486809 0.2885769712800757 -0.5111970922665878
O 2.269744872728845 0.5304324343638616 -1.106359284850543
C 1.1446738069488418 0.346444108598486 -0.3340735454192041
C 0.07586562119238043 -0.3259601910864633 -0.9257043464151229
C -1.1080567868617222 -0.5037968774864419 -0.2107168427403208
O -2.110399208391366 -1.2150811633978402 -0.831560158476392
C -3.388780541344403 -0.7125450372456951 -0.7380631797343804
C -3.6957739690933926 0.6145827803033271 -1.0409307822064697
C -5.012244034814749 1.055793459324586 -0.9276795188266996
C -6.017929196113018 0.16277270203939712 -0.5470417846425021
C -5.730746537002753 -1.187570567427686 -0.32482988419342684
N -6.723620818775892 -2.048181358920835 0.16006354885804444
C -4.40000834289258 -1.6081898646251889 -0.3818790692710696
C -1.217625122618612 -0.03193628373529825 1.1009225341127111
C -0.1537932088567217 0.6607291693923985 1.6810863375352278
C 1.0246381181907251 0.8610403328001562 0.9604678145569843
C 3.7598035016929985 -0.8895849586734252 0.185228652884543
C 5.015621565830633 -1.0701789265462331 0.7604611402369477
C 6.001199754050626 -0.09083492103375698 0.6078422480354858
H 6.6064856159353935 2.694475868416587 -1.0141376616767557
H 7.672899437139591 1.7493599597352163 -0.11303760049778201
H 4.24734283423348 2.16586494776753 -1.2239248209953264
H 0.1650290383503204 -0.7090380470149686 -1.9377886944701026
H -2.9184302245238825 1.3077753980198767 -1.349189361102109
H -5.256417393808583 2.095723249187707 -1.1271127362371043
H -7.03422564729783 0.5309313696617899 -0.4331878103258728
H -6.528184791213326 -3.030993005820499 -0.00418804785366126
H -7.663384924936498 -1.7902924131352986 -0.12442241163972226
H -4.138115430634293 -2.6352814483517255 -0.14545679279160603
H -2.1256033860226866 -0.19777767962783224 1.6748323961338425
H -0.24305249401211845 1.0442132050644464 2.694227803426479
H 1.842121919215486 1.4156633877617015 1.4136907332743898
H 2.9999797583263903 -1.6580057981368372 0.2947672318928348
H 5.226794534829138 -1.9682477956194606 1.3346799159869098
H 6.965034159122038 -0.23356606063172014 1.0895199418711543


--Link1--
%nprocshared=6
%mem=12GB
%Oldchk=DKKYOQYISDAQER-UHFFFAOYSA-N_conf_1_0.chk
%Chk=DKKYOQYISDAQER-UHFFFAOYSA-N_conf_1_1.chk
# freq B3LYP/6-31G** SCRF=(Solvent=water) volume NMR pop=NPA density=current Geom=AllCheck Guess=Read


--Link1--
%nprocshared=6
%mem=12GB
%Oldchk=DKKYOQYISDAQER-UHFFFAOYSA-N_conf_1_1.chk
%Chk=DKKYOQYISDAQER-UHFFFAOYSA-N_conf_1_2.chk
# TD(NStates=10, Root=1) B3LYP/6-31G** SCRF=(Solvent=water) volume pop=NPA density=current Geom=AllCheck Guess=Read



