%nprocshared=6
%mem=12GB
%Chk=DKKYOQYISDAQER-UHFFFAOYSA-N_conf_4_0.chk
# opt=CalcFc B3LYP/6-31G** SCRF=(Solvent=water) scf=xqc 

DKKYOQYISDAQER-UHFFFAOYSA-N_conf_4

0 1
N 6.923937751505556 -0.5716747519777148 -1.4095029542874256
C 5.798006985346374 -0.6202182853338853 -0.578662764131736
C 4.518140746743113 -0.7152455598621008 -1.130171446635504
C 3.4006509182572904 -0.870244739321119 -0.30598025949992363
O 2.1743730491212103 -0.9581115691080221 -0.9263426980111945
C 1.1421613483854838 -0.22236558954619565 -0.3894096427937386
C -0.08431575286621043 -0.8683328650468584 -0.23922552600495312
C -1.1794114999146823 -0.1613088557210388 0.25570637211875863
O -2.351233376303385 -0.8633153234988947 0.426295215479663
C -3.5115307334923473 -0.2716843808107401 -0.020930602118846717
C -3.6274998846729307 0.28827387945988836 -1.293981128908554
C -4.8522378142310565 0.8101372364757968 -1.704646445424095
C -5.95180187344084 0.7734301330655138 -0.8424977606144313
C -5.834188990785982 0.24769508424509426 0.4477929255087874
N -6.969859396273312 0.0989001983833808 1.253077219967075
C -4.619361480643177 -0.3271205667107069 0.8286227294255181
C -1.0457533618301458 1.181413326288836 0.6220764140355556
C 0.17773279773380934 1.8302917950168929 0.4483960704055911
C 1.2704455060665816 1.1324452547521782 -0.06843558735822476
C 3.557171070711005 -1.0126493811640118 1.0734695017679161
C 4.835829533079091 -0.9791915841878205 1.6256318939550112
C 5.9491636935614105 -0.8005815153891765 0.7996336983030048
H 6.749688434681227 -0.14611881723397174 -2.3145690246994737
H 7.752992603156448 -0.19793864460356922 -0.9587530193896502
H 4.3790876341995055 -0.6639276903734793 -2.2060617607140727
H -0.18605069988807224 -1.9160196531143265 -0.506179297879154
H -2.782167798946975 0.29771212933509783 -1.9760364353557356
H -4.958608814404318 1.2269069185905652 -2.702582573313735
H -6.9081445362142855 1.153746754985884 -1.1920536337829963
H -7.696061453742172 0.7845579295817896 1.0722683988891843
H -6.763450382524749 0.0047264773079240515 2.2425883098348107
H -4.523033778026101 -0.8184018766416586 1.7924034691776214
H -1.8876352934255247 1.7266127656282708 1.0401135596645386
H 0.27955841327135184 2.878900917722469 0.7155893991395359
H 2.2153602945594066 1.6482833957206968 -0.21611569110178777
H 2.696969784661765 -1.1752778426354284 1.716494505561042
H 4.969708043396822 -1.1127267259554305 2.695741147783059
H 6.9413683131890815 -0.8115779783238641 1.2432906741349383


--Link1--
%nprocshared=6
%mem=12GB
%Oldchk=DKKYOQYISDAQER-UHFFFAOYSA-N_conf_4_0.chk
%Chk=DKKYOQYISDAQER-UHFFFAOYSA-N_conf_4_1.chk
# freq B3LYP/6-31G** SCRF=(Solvent=water) volume NMR pop=NPA density=current Geom=AllCheck Guess=Read


--Link1--
%nprocshared=6
%mem=12GB
%Oldchk=DKKYOQYISDAQER-UHFFFAOYSA-N_conf_4_1.chk
%Chk=DKKYOQYISDAQER-UHFFFAOYSA-N_conf_4_2.chk
# TD(NStates=10, Root=1) B3LYP/6-31G** SCRF=(Solvent=water) volume pop=NPA density=current Geom=AllCheck Guess=Read



