%nprocshared=6
%mem=12GB
%Chk=DKKYOQYISDAQER-UHFFFAOYSA-N_conf_2_0.chk
# opt=CalcFc B3LYP/6-31G** SCRF=(Solvent=water) scf=xqc 

DKKYOQYISDAQER-UHFFFAOYSA-N_conf_2

0 1
N -6.940928464892566 -0.39211151675946093 1.2532304818589723
C -5.829870881212523 -0.22777404386613215 0.4171254549350441
C -4.565558814356615 -0.6520396321500284 0.8327917741039881
C -3.474275692398319 -0.5870667355136815 -0.03727473296246314
O -2.2623540287182977 -1.0260659492047666 0.4474117385195317
C -1.1582069928224061 -0.24751380111935642 0.18321212363912323
C -0.010438485057555324 -0.9055522703122912 -0.25706660649201807
C 1.15344210211747 -0.17599531535622806 -0.496796760251805
O 2.2399057448720074 -0.8745102780715891 -0.9740201977674945
C 3.463880137404689 -0.5959690403872009 -0.40856321750045566
C 3.6662419296364495 -0.5892202308127225 0.9720906482207708
C 4.932404744816965 -0.3020939712697063 1.4770089662601267
C 5.994550665956519 -0.05797994964067652 0.6017590920845053
C 5.817483578154336 -0.14710729430122382 -0.7824477981793081
N 6.859383011572427 0.2047213481163903 -1.6498045571588478
C 4.532812933736663 -0.3760274060501996 -1.2806649542099937
C 1.165617541942011 1.2109626003517024 -0.3194122711792039
C 0.021267269526842138 1.862351031422517 0.1436552596363785
C -1.138938493719208 1.1325068017970794 0.4067295185443911
C -3.650446819785746 -0.17253324617438745 -1.3581911354755567
C -4.920191360242145 0.19530853181010163 -1.7980098581912165
C -6.004776331560173 0.15078462719862246 -0.9174733355965089
H -6.718238963700686 -0.36528234352554934 2.2433427911820374
H -7.726388995337925 0.20563895003813093 1.016646521615981
H -4.4177329509176335 -1.0315932663752572 1.8395607625318098
H -0.023192357738474695 -1.9801632660981785 -0.4125804585727378
H 2.8455613565200837 -0.791254594726392 1.6543279617513444
H 5.09305031035467 -0.2599470922221857 2.5509065494336474
H 6.968466381551201 0.19516509764502857 1.0125797581270968
H 6.758642967286534 -0.17750442275993514 -2.58516720414492
H 7.784611109730323 0.040909153192800356 -1.265425297101211
H 4.351859186360379 -0.38106744982624363 -2.3514734424583974
H 2.0599043216438915 1.7888924731889833 -0.5375884247580747
H 0.03414823322876345 2.938023885568936 0.29913855408978146
H -2.020935677133351 1.6440916334326847 0.7823256879611565
H -2.8151398507660192 -0.1585019252186865 -2.052425076095006
H -5.071577084178094 0.497206631701579 -2.8308875330367793
H -6.994041281873676 0.40831227627779515 -1.2868584035616024


--Link1--
%nprocshared=6
%mem=12GB
%Oldchk=DKKYOQYISDAQER-UHFFFAOYSA-N_conf_2_0.chk
%Chk=DKKYOQYISDAQER-UHFFFAOYSA-N_conf_2_1.chk
# freq B3LYP/6-31G** SCRF=(Solvent=water) volume NMR pop=NPA density=current Geom=AllCheck Guess=Read


--Link1--
%nprocshared=6
%mem=12GB
%Oldchk=DKKYOQYISDAQER-UHFFFAOYSA-N_conf_2_1.chk
%Chk=DKKYOQYISDAQER-UHFFFAOYSA-N_conf_2_2.chk
# TD(NStates=10, Root=1) B3LYP/6-31G** SCRF=(Solvent=water) volume pop=NPA density=current Geom=AllCheck Guess=Read



