%nprocshared=6
%mem=12GB
%Chk=DKKYOQYISDAQER-UHFFFAOYSA-N_conf_0_0.chk
# opt=CalcFc B3LYP/6-31G** SCRF=(Solvent=water) scf=xqc 

DKKYOQYISDAQER-UHFFFAOYSA-N_conf_0

0 1
N 6.663465282996416 -0.8886045971599621 1.7330609444893905
C 5.335222931985198 -0.4488470430195963 1.6844746671358286
C 4.345544988296357 -1.255521989765332 1.1180237218011806
C 3.004008406329633 -0.8679701489924059 1.1624383086566377
O 2.087528938493568 -1.7192945898092806 0.5870227303868942
C 1.128700021036061 -1.157284590958319 -0.22535712427204227
C -0.18298332806281603 -1.5981130462393263 -0.05381800119611299
C -1.1948680918941021 -1.083387044614495 -0.8635064304520139
O -2.4652321267172193 -1.5739806204005582 -0.6611851457777186
C -3.4968421935148277 -0.6626517060242634 -0.6359243440171448
C -4.641798399713233 -0.9838856074460771 -1.3619308518657955
C -5.742294809951344 -0.13142817619899155 -1.3239957552715458
C -5.691249544686132 1.0396210754625976 -0.5628117094891888
C -4.5335095366732245 1.3890189145213045 0.1392748562722379
N -4.53940213764763 2.4947838155312474 0.9984379705436337
C -3.4571476670378187 0.49828327451224097 0.14412600216812732
C -0.8907496592578128 -0.1694809300663072 -1.8771290051396599
C 0.4271812309547996 0.2522394146147466 -2.0603629052957273
C 1.4394796645493635 -0.24399377072472675 -1.237501787473025
C 2.6274846683009203 0.29130551890357587 1.8422339839829631
C 3.60225641560025 1.0699413298280758 2.4618797790777163
C 4.945744847320039 0.6901016600343213 2.3959839538172076
H 6.919174247602394 -1.511997189236351 0.9737357452156506
H 7.340027448933206 -0.1443491508458265 1.8685627640319271
H 4.610867881892488 -2.1900705747172418 0.6324163527747828
H -0.416510885797436 -2.332071490048092 0.7117552181285868
H -4.68021264273411 -1.901461278126831 -1.942176867041427
H -6.6466885080640585 -0.3854646195699689 -1.87007318188164
H -6.570605429945335 1.676478045382775 -0.5169918938770891
H -5.177470241950213 3.2317961183254313 0.7157332279033849
H -3.6135745058591793 2.8479748981231743 1.2194237320721721
H -2.5870598589937326 0.7040995979664971 0.7598677804632703
H -1.6697362018412778 0.20583279535000223 -2.5352611909482894
H 0.6671244080379493 0.9569410641463048 -2.852321612708203
H 2.4661130750416147 0.07333146495825066 -1.3994086695755652
H 1.5821868318362207 0.576519601087596 1.9164183531789032
H 3.3170335794934167 1.961348588696903 3.0141497903989958
H 5.688790901643114 1.290240986518565 2.914448194359656


--Link1--
%nprocshared=6
%mem=12GB
%Oldchk=DKKYOQYISDAQER-UHFFFAOYSA-N_conf_0_0.chk
%Chk=DKKYOQYISDAQER-UHFFFAOYSA-N_conf_0_1.chk
# freq B3LYP/6-31G** SCRF=(Solvent=water) volume NMR pop=NPA density=current Geom=AllCheck Guess=Read


--Link1--
%nprocshared=6
%mem=12GB
%Oldchk=DKKYOQYISDAQER-UHFFFAOYSA-N_conf_0_1.chk
%Chk=DKKYOQYISDAQER-UHFFFAOYSA-N_conf_0_2.chk
# TD(NStates=10, Root=1) B3LYP/6-31G** SCRF=(Solvent=water) volume pop=NPA density=current Geom=AllCheck Guess=Read



