%nprocshared=5
%mem=10GB
%Chk=MBJAPGAZEWPEFB-UHFFFAOYSA-N_conf_2_0.chk
# opt=CalcFc B3LYP/6-31G** SCRF=(Solvent=water) scf=xqc 

MBJAPGAZEWPEFB-UHFFFAOYSA-N_conf_2

0 1
N -4.37785272771788 -2.1968063373136912 1.28577854914964
C -3.1323938068375936 -1.6692790676658775 0.9331641016455928
C -2.0672688223359263 -2.5177135001664994 0.6368315338927604
C -0.8520164033441895 -2.0077176268435597 0.16722226296339043
C -0.6761761767990364 -0.6320681266252871 -0.05782399059175704
C 0.6173434445609668 -0.16713874705765458 -0.5785839786333244
C 0.7334271254060225 0.07319472919597997 -1.9590102246191918
C 1.9329248571622655 0.5205954435542508 -2.522335786598222
C 3.070717482977804 0.6914612323790597 -1.7369727509334976
N 4.222469758777448 1.2645917482838929 -2.2803271289160008
C 2.9632932380275547 0.5002218476257444 -0.3610374629831435
C 1.7588804458440572 0.05525124313896861 0.2126739931349943
S 1.7273199110953557 -0.12708048084360166 1.9845949924387682
O 2.7507679714856863 0.745349436114199 2.5222098728620193
O 0.3297713826977989 0.5232790597041648 2.4609467023813436
O 1.7059527700069455 -1.543957034744077 2.2683634067892693
C -1.7788444771821652 0.20847088661814922 0.18624717015101788
S -1.6849389221078037 1.9668711557173737 -0.04172408356504903
O -1.6352930446197338 2.232137658936881 -1.4618995953341614
O -0.2416934606978517 2.4159719262674813 0.5421838739033251
O -2.670731229599705 2.5919665228307953 0.8124685494368179
C -2.997213226787859 -0.3102408411954476 0.6573145407023866
H -4.981318253005991 -1.5446303554414182 1.778509835643809
H -4.325665657919446 -3.0949437631271435 1.757935614925501
H -2.167629269676557 -3.5917285246631785 0.7750708697696742
H -0.037261198084609 -2.705354317869731 -0.02634497780790516
H -0.12588557027859956 -0.07066554569649931 -2.6152480457587797
H 1.9659878325248052 0.7312064087514571 -3.589156951730366
H 5.073171115744472 1.0777739071995722 -1.7563871807828475
H 4.34567347455372 1.092825722158864 -3.2743383244423447
H 3.8259412877806596 0.7010561725339849 0.27241892455479083
H 0.37964561049133866 1.5005575904060193 2.36333334391056
H 0.19395523773255602 2.933678115309852 -0.17500329711206603
H -3.8450606998741756 0.35286346252645817 0.81892564155336


--Link1--
%nprocshared=5
%mem=10GB
%Oldchk=MBJAPGAZEWPEFB-UHFFFAOYSA-N_conf_2_0.chk
%Chk=MBJAPGAZEWPEFB-UHFFFAOYSA-N_conf_2_1.chk
# freq B3LYP/6-31G** SCRF=(Solvent=water) volume NMR pop=NPA density=current Geom=AllCheck Guess=Read


--Link1--
%nprocshared=5
%mem=10GB
%Oldchk=MBJAPGAZEWPEFB-UHFFFAOYSA-N_conf_2_1.chk
%Chk=MBJAPGAZEWPEFB-UHFFFAOYSA-N_conf_2_2.chk
# TD(NStates=10, Root=1) B3LYP/6-31G** SCRF=(Solvent=water) volume pop=NPA density=current Geom=AllCheck Guess=Read



