%nprocshared=5
%mem=10GB
%Chk=MBJAPGAZEWPEFB-UHFFFAOYSA-N_conf_0_0.chk
# opt=CalcFc B3LYP/6-31G** SCRF=(Solvent=water) scf=xqc 

MBJAPGAZEWPEFB-UHFFFAOYSA-N_conf_0

0 1
N 4.448078464212561 -2.224711165795357 0.13351609593254166
C 3.203080277086107 -1.6210922693917862 0.3228902464548029
C 2.076530436243311 -2.395019122526423 0.5847165276066562
C 0.8070643779450749 -1.8103441799453008 0.6541311590624915
C 0.61041884739722 -0.43568636150150475 0.41666200272723813
C -0.761690055087069 0.08296825841384403 0.532613559791338
C -1.2467594218530311 0.38711255298186575 1.8174967668106878
C -2.5465343036556702 0.8671317363209752 2.0104277597359013
C -3.3900531915741983 1.099656439972368 0.925940108850606
N -4.723439895611554 1.4661061730381117 1.1353035568921177
C -2.951211182450425 0.7438088992321743 -0.34815274290186915
C -1.6481012829711583 0.255867024992879 -0.5483408659917987
S -1.1620066491258187 -0.12735253469441382 -2.2107084820781835
O 0.03045418759235251 0.6379058115732069 -2.5251300701265333
O -0.7618491408469722 -1.687381988022698 -2.177573849356004
O -2.3288621473977735 -0.07357522328269021 -3.065269396034698
C 1.7490136826897007 0.32626856172105567 0.10163829758028786
S 1.7117255900935293 2.072175317996954 -0.2639903944522193
O 0.36372906600710797 2.578299012577705 -0.13279326140024214
O 2.063881866925151 2.1159447369928754 -1.8410401475137823
O 2.808872411626974 2.6792898194740244 0.4600773291973807
C 3.0237286709206916 -0.27101533316071613 0.03289202458336093
H 5.238837299144893 -1.5962494630737964 0.24519956612243593
H 4.574808909390732 -3.0931194068065513 0.6441211999008656
H 2.17252583611194 -3.466953852750122 0.7393958736357538
H -0.04432242755385618 -2.451328078330565 0.8824327995412177
H -0.609922475736082 0.24762415462915754 2.6904304727493584
H -2.8887351866923328 1.0672220092510354 3.0229470258250286
H -4.872362108016737 1.9946323166098736 1.9903891439986336
H -5.15815772130465 1.917274673460202 0.3352796680876644
H -3.629617129859613 0.8570278129137034 -1.1911303078719737
H -1.3615411744495833 -2.1611566398406055 -2.7928298925698614
H 1.317586753940766 1.6839752855151042 -2.3337521606673395
H 3.8848288168583007 0.33469502145538366 -0.24778961412092085


--Link1--
%nprocshared=5
%mem=10GB
%Oldchk=MBJAPGAZEWPEFB-UHFFFAOYSA-N_conf_0_0.chk
%Chk=MBJAPGAZEWPEFB-UHFFFAOYSA-N_conf_0_1.chk
# freq B3LYP/6-31G** SCRF=(Solvent=water) volume NMR pop=NPA density=current Geom=AllCheck Guess=Read


--Link1--
%nprocshared=5
%mem=10GB
%Oldchk=MBJAPGAZEWPEFB-UHFFFAOYSA-N_conf_0_1.chk
%Chk=MBJAPGAZEWPEFB-UHFFFAOYSA-N_conf_0_2.chk
# TD(NStates=10, Root=1) B3LYP/6-31G** SCRF=(Solvent=water) volume pop=NPA density=current Geom=AllCheck Guess=Read



