%nprocshared=5
%mem=10GB
%Chk=MBJAPGAZEWPEFB-UHFFFAOYSA-N_conf_3_0.chk
# opt=CalcFc B3LYP/6-31G** SCRF=(Solvent=water) scf=xqc 

MBJAPGAZEWPEFB-UHFFFAOYSA-N_conf_3

0 1
N -4.884577062181181 -1.216521668886056 0.6045419898727291
C -3.507662189790558 -1.0693802519035163 0.4283308568944906
C -2.617777315904895 -1.6086170624658187 1.355261746527225
C -1.2429065988090424 -1.367860267951424 1.2553062179519558
C -0.7156834893263426 -0.5411172773094438 0.2468512128843393
C 0.744169166733972 -0.3654179030959833 0.18857795576928638
C 1.4872838875203394 -1.3517981406126909 -0.4896651370910799
C 2.881575922425251 -1.2853959565813664 -0.5885599738915327
C 3.5902041863342085 -0.25773059121084196 0.02630816232839165
N 4.965623513013443 -0.1261532812380158 -0.17676310454951075
C 2.8713057703812916 0.7549076631407257 0.6561009430273547
C 1.4670196698602618 0.6952235101164052 0.7618844819247813
S 0.7174306174555728 2.0572071533252134 1.6373019915308404
O 1.5048255006056988 2.2750272722707363 2.8328229813998322
O 0.9632133036211544 3.3041442462032284 0.638529558377014
O -0.713779738023188 1.870303875055595 1.7117938492271092
C -1.630565447000468 0.04296370875373621 -0.6505873604610777
S -1.0902186529615616 1.134554635797376 -1.939754984586807
O -0.34449164028849 2.2242265321951056 -1.3378540039548152
O -0.06525109805163212 0.2595698355679958 -2.822515310849135
O -2.1993179485023475 1.3927458759066509 -2.8332150142402712
C -3.0111636116090312 -0.20109216576452832 -0.5422962026453313
H -5.443696680323771 -1.0624472149776336 -0.22837769518115994
H -5.161509652923138 -2.0497724351083946 1.1137815828167223
H -2.9857943322853546 -2.221328124232112 2.1747745102494735
H -0.58139676635294 -1.8214443693717357 1.992655064824221
H 0.9755133753146429 -2.185765620597193 -0.9695211155152261
H 3.4073108389884412 -2.0508547305570017 -1.1540605553346885
H 5.4382003885974175 0.44280400605688314 0.5202452489543465
H 5.449757891399439 -1.0022274876809456 -0.34696855015146055
H 3.4045377332543842 1.6059382497571117 1.0787612245856333
H 0.4184741908145339 3.152624639482718 -0.17788980907932572
H -0.38200967644537054 0.27895228752190504 -3.750796908362215
H -3.708644055540648 0.2937310583935592 -1.2150038532520948


--Link1--
%nprocshared=5
%mem=10GB
%Oldchk=MBJAPGAZEWPEFB-UHFFFAOYSA-N_conf_3_0.chk
%Chk=MBJAPGAZEWPEFB-UHFFFAOYSA-N_conf_3_1.chk
# freq B3LYP/6-31G** SCRF=(Solvent=water) volume NMR pop=NPA density=current Geom=AllCheck Guess=Read


--Link1--
%nprocshared=5
%mem=10GB
%Oldchk=MBJAPGAZEWPEFB-UHFFFAOYSA-N_conf_3_1.chk
%Chk=MBJAPGAZEWPEFB-UHFFFAOYSA-N_conf_3_2.chk
# TD(NStates=10, Root=1) B3LYP/6-31G** SCRF=(Solvent=water) volume pop=NPA density=current Geom=AllCheck Guess=Read



