%nprocshared=4
%mem=8GB
%Chk=JZUHIOJYCPIVLQ-LURJTMIESA-N_conf_2_0.chk
# opt=CalcFc B3LYP/6-31G** SCRF=(Solvent=water) scf=xqc 

JZUHIOJYCPIVLQ-LURJTMIESA-N_conf_2

0 1
N -2.3592158842808697 1.4731185423560536 0.7064366700113328
C -2.1783284484431467 0.24534562102001334 -0.06109293451869679
C -1.1821575402962265 -0.723680231521285 0.6021889550522416
C -1.1204304398430036 -2.0266245974523294 -0.202927434648524
C 0.23138025170001839 -0.14301588036585433 0.8340124815358883
C 0.9540086176026787 0.3408357501171934 -0.4300748769878084
C 2.3241728851663157 0.9631766378168469 -0.14268598260798737
N 3.2837747424427066 -0.013814196088815582 0.3563152040558936
H -1.495706854834967 2.0130295994725196 0.7036094039197613
H -3.056281266894883 2.0568149807967235 0.24522007890171182
H -3.154412881139848 -0.24682874723011328 -0.14530035587280465
H -1.8641111850004426 0.4950629968313046 -1.0803381711804652
H -1.5799356548099686 -0.9831885523396474 1.5935710783667
H -0.8086752121001937 -1.850536581257796 -1.237282150620359
H -2.1042586047318936 -2.507685114069818 -0.23090223242384225
H -0.41893461040153795 -2.7343607636115013 0.2510290458980153
H 0.8353921170398558 -0.9143972025814716 1.3275708453647335
H 0.16718334494157513 0.6869185363657623 1.5485053148583345
H 1.075244899626834 -0.4872025629900922 -1.1379857563971043
H 0.3457645237755192 1.100718493641839 -0.9330770591658265
H 2.2243124678624575 1.7827393601894181 0.5775305765677271
H 2.7182576106231426 1.3917891299711147 -1.070660141546048
H 4.179844804378841 0.44517031292397813 0.5162823746257907
H 2.9831123176171914 -0.3633855319941312 1.265022287362701


--Link1--
%nprocshared=4
%mem=8GB
%Oldchk=JZUHIOJYCPIVLQ-LURJTMIESA-N_conf_2_0.chk
%Chk=JZUHIOJYCPIVLQ-LURJTMIESA-N_conf_2_1.chk
# freq B3LYP/6-31G** SCRF=(Solvent=water) volume NMR pop=NPA density=current Geom=AllCheck Guess=Read


--Link1--
%nprocshared=4
%mem=8GB
%Oldchk=JZUHIOJYCPIVLQ-LURJTMIESA-N_conf_2_1.chk
%Chk=JZUHIOJYCPIVLQ-LURJTMIESA-N_conf_2_2.chk
# TD(NStates=10, Root=1) B3LYP/6-31G** SCRF=(Solvent=water) volume pop=NPA density=current Geom=AllCheck Guess=Read



