%nprocshared=4
%mem=8GB
%Chk=JZUHIOJYCPIVLQ-LURJTMIESA-N_conf_0_0.chk
# opt=CalcFc B3LYP/6-31G** SCRF=(Solvent=water) scf=xqc 

JZUHIOJYCPIVLQ-LURJTMIESA-N_conf_0

0 1
N -3.6142059817618817 -0.3250261946489152 -0.5026011797767086
C -2.2597459140211047 -0.8511105388257846 -0.6374722773652131
C -1.1695072906379762 0.11288365526805966 -0.1215351241545041
C -1.3141529231199134 0.37801076905625425 1.3814450180975757
C 0.21858187477515093 -0.47245913948670093 -0.46503530719742153
C 1.3823280072205786 0.4787041256817542 -0.1646936678542166
C 2.7069990367424746 -0.09757119834815615 -0.6661142709848187
N 3.800100519937923 0.8229290643138487 -0.37748029255093857
H -3.850570751875182 -0.21531461671486984 0.48188067883211566
H -3.6614527551114757 0.607650653966427 -0.9111942500390972
H -2.0902735674800503 -1.0621451362616863 -1.6995464201537245
H -2.198723008087238 -1.810503565148647 -0.1107451351114294
H -1.2765138756599457 1.0701885985646784 -0.6490521555199209
H -2.291999751725001 0.8066992667953239 1.6212780816450907
H -0.5674650002802781 1.0954277956309113 1.7342335081110416
H -1.1976239943053133 -0.545831168992187 1.9579042699186167
H 0.3684096859498898 -1.4140760453698236 0.07863362098710636
H 0.24106474162553426 -0.7205163152349773 -1.534199962047121
H 1.4531687944735467 0.6554190553823834 0.9145550006930259
H 1.1956827243879595 1.4480456884885091 -0.6434948690246269
H 2.906855158554407 -1.061810456857577 -0.18599450756979416
H 2.65983751611971 -0.26603992260132875 -1.7472850912365574
H 4.680748425804651 0.4068756503849625 -0.6779627500966441
H 3.878458328473714 0.9595699749576311 0.6295260185427451


--Link1--
%nprocshared=4
%mem=8GB
%Oldchk=JZUHIOJYCPIVLQ-LURJTMIESA-N_conf_0_0.chk
%Chk=JZUHIOJYCPIVLQ-LURJTMIESA-N_conf_0_1.chk
# freq B3LYP/6-31G** SCRF=(Solvent=water) volume NMR pop=NPA density=current Geom=AllCheck Guess=Read


--Link1--
%nprocshared=4
%mem=8GB
%Oldchk=JZUHIOJYCPIVLQ-LURJTMIESA-N_conf_0_1.chk
%Chk=JZUHIOJYCPIVLQ-LURJTMIESA-N_conf_0_2.chk
# TD(NStates=10, Root=1) B3LYP/6-31G** SCRF=(Solvent=water) volume pop=NPA density=current Geom=AllCheck Guess=Read



