%nprocshared=4
%mem=8GB
%Chk=JZUHIOJYCPIVLQ-LURJTMIESA-N_conf_3_0.chk
# opt=CalcFc B3LYP/6-31G** SCRF=(Solvent=water) scf=xqc 

JZUHIOJYCPIVLQ-LURJTMIESA-N_conf_3

0 1
N -2.436170511762276 -0.3549038028356364 -1.6753280277575227
C -2.253599442278902 0.4701228536788314 -0.4858978878296297
C -1.1265936610486174 -0.06093207513907737 0.42336726640043465
C -1.0915385418197034 0.7701932296903401 1.7107564788248486
C 0.23757623859542504 -0.0496065855331414 -0.30327469951441
C 1.3817674412968854 -0.6343357078974606 0.535022304683694
C 2.6706346008682917 -0.8490356681509058 -0.26469830391365856
N 3.2439533958033064 0.39378371220893754 -0.7686833578377273
H -3.2259265909095847 -0.0015125736014568185 -2.214249221803579
H -2.6818593050800916 -1.304785530584618 -1.3990580502624264
H -3.1990369829112253 0.493560064009033 0.06833423953124913
H -2.033168210875427 1.4976093567361206 -0.7972500565920322
H -1.3650058131456644 -1.096544327911376 0.7011251860955612
H -0.7808604426130998 1.8008459194250106 1.5089322955953945
H -0.40194844248357275 0.3416427562229288 2.4441715785696227
H -2.080462180946327 0.8010430571160708 2.1810305499854032
H 0.4815024184358248 0.9792570349060185 -0.5952662552936953
H 0.15976099376909558 -0.6314362550495868 -1.229624082536964
H 1.5956411380286717 0.01921495843145374 1.388801934324331
H 1.0695892541642746 -1.602492729685332 0.9454720443736302
H 3.4118123112393035 -1.334794235699447 0.37934192581544934
H 2.4862123860214913 -1.5270808878958708 -1.105117616189136
H 2.6052301671863587 0.8161695049082319 -1.441651738105036
H 3.3324897804655684 1.0640179326509096 -0.006256506563735271


--Link1--
%nprocshared=4
%mem=8GB
%Oldchk=JZUHIOJYCPIVLQ-LURJTMIESA-N_conf_3_0.chk
%Chk=JZUHIOJYCPIVLQ-LURJTMIESA-N_conf_3_1.chk
# freq B3LYP/6-31G** SCRF=(Solvent=water) volume NMR pop=NPA density=current Geom=AllCheck Guess=Read


--Link1--
%nprocshared=4
%mem=8GB
%Oldchk=JZUHIOJYCPIVLQ-LURJTMIESA-N_conf_3_1.chk
%Chk=JZUHIOJYCPIVLQ-LURJTMIESA-N_conf_3_2.chk
# TD(NStates=10, Root=1) B3LYP/6-31G** SCRF=(Solvent=water) volume pop=NPA density=current Geom=AllCheck Guess=Read



