%nprocshared=7
%mem=14GB
%Chk=IGSBHTZEJMPDSZ-IWTMDLJTSA-N_conf_1_0.chk
# opt=CalcFc B3LYP/6-31G** SCRF=(Solvent=water) scf=xqc 

IGSBHTZEJMPDSZ-IWTMDLJTSA-N_conf_1

0 1
C -3.3390077221708983 -2.212996562016107 -0.5575198128448319
C -3.266877307956447 -0.7557380898658393 -1.0342449680880308
C -1.8463206398012395 -0.18596515341144826 -0.8487666727066827
C -1.486534143206517 0.10221671268103188 0.6178659636869851
C -0.10081163740005396 0.7687154261909913 0.7936077914000199
C 1.0941847060467484 -0.08029019288035424 0.3011639466596943
C 1.468649630427921 0.2117977036629658 -1.1695603783214765
C 2.6651929762348443 1.150257932814864 -1.2914537249566533
C 3.9309822706118798 0.5783373474760997 -0.6314074997210748
N 4.719878968256837 -0.1784546609531583 -1.6082649493602297
C 3.6085410196331953 -0.3288559337301955 0.5805066827143267
C 4.759106017961019 -0.3443445082896721 1.5895330727531314
C 2.3019725623817093 0.11806066042037192 1.2462793422268428
C -2.561220822389148 0.9842618680556184 1.278684067754506
C -3.967943811567958 0.40796238600484785 1.1206664946487304
C -4.33853201968983 0.11141169509582119 -0.3393885429422661
N -4.534377806381588 1.3622968679239487 -1.082565082147788
H -4.331228027680483 -2.6325235561235987 -0.7556559054505149
H -3.141653210308857 -2.3147276103565777 0.5132449021309664
H -2.6081697399878765 -2.829275109642293 -1.0921924162998344
H -3.4774979694672754 -0.7775452370743982 -2.112814921587615
H -1.7553427942739808 0.7396692239662259 -1.4308258974191763
H -1.1285011404326377 -0.8936479760955466 -1.279065782408662
H -1.4596954126844073 -0.851665487688182 1.160859769981838
H 0.023922978395699207 0.9637856304602538 1.8675012666483846
H -0.09018470979357279 1.7515913217069718 0.30526218044882025
H 0.807892402760747 -1.1391500954188685 0.36161887647952445
H 1.7097700801396218 -0.7353563708265758 -1.6692627217062508
H 0.6252227306431594 0.6396464048703794 -1.7196738814536219
H 2.4142542252441954 2.1057571180736234 -0.8117559246301991
H 2.8461322511017286 1.3896646371023815 -2.346808203566526
H 4.544199580352728 1.4290288310869512 -0.3077378795656178
H 5.592755407312817 -0.487619861316487 -1.1833569634278456
H 4.979292741445449 0.42889003293431127 -2.384583606401378
H 3.4646010681684567 -1.3640918716685455 0.23830449875670168
H 4.942909513259605 0.6559175728486139 1.9961673218247573
H 4.52877861281245 -1.0105318811644128 2.4278065669263005
H 5.686106640940889 -0.6999874827435822 1.1289400653976112
H 2.387377474847528 1.1710754594779442 1.5467348437846382
H 2.127310680176603 -0.454150693696366 2.1662657898491626
H -2.5263140397885846 1.995683364888912 0.8552208618121157
H -2.343785490649545 1.0910091753549067 2.3486919292564696
H -4.694694399940699 1.1009361812869078 1.5632786682748037
H -4.041232921941612 -0.5157299837498601 1.7079148839928922
H -5.298556102667648 -0.41826074673519703 -0.3558316309200231
H -5.218881896924266 1.9428086269569644 -0.599447361884786
H -3.671670772050351 1.9027754225798135 -1.1039350595983188


--Link1--
%nprocshared=7
%mem=14GB
%Oldchk=IGSBHTZEJMPDSZ-IWTMDLJTSA-N_conf_1_0.chk
%Chk=IGSBHTZEJMPDSZ-IWTMDLJTSA-N_conf_1_1.chk
# freq B3LYP/6-31G** SCRF=(Solvent=water) volume NMR pop=NPA density=current Geom=AllCheck Guess=Read


--Link1--
%nprocshared=7
%mem=14GB
%Oldchk=IGSBHTZEJMPDSZ-IWTMDLJTSA-N_conf_1_1.chk
%Chk=IGSBHTZEJMPDSZ-IWTMDLJTSA-N_conf_1_2.chk
# TD(NStates=10, Root=1) B3LYP/6-31G** SCRF=(Solvent=water) volume pop=NPA density=current Geom=AllCheck Guess=Read



