%nprocshared=7
%mem=14GB
%Chk=QFTYSVGGYOXFRQ-UHFFFAOYSA-N_conf_4_0.chk
# opt=CalcFc B3LYP/6-31G** SCRF=(Solvent=water) scf=xqc 

QFTYSVGGYOXFRQ-UHFFFAOYSA-N_conf_4

0 1
N 6.486287003232108 -0.5367134824456787 -1.0070414968834982
C 5.126096102191488 -0.8534731323811686 -1.4256933438002724
C 4.1256240007086085 -0.8699058234910129 -0.2660616172006026
C 3.914301932980866 0.5049850721438535 0.37518174488088374
C 2.930777542222119 0.48509579202412123 1.5506609068061632
C 1.5102163539090723 0.002104683392935126 1.2368959708754113
C 0.7982265660523686 0.8500445558268404 0.1799730089006067
C -0.626919855574619 0.3736724441780058 -0.1250939047944787
C -1.6048498987025375 0.5996357386672497 1.0312082076103977
C -3.029258500202553 0.12409710603422808 0.7218205877469288
C -3.716282806723957 0.9378571437377128 -0.37777104230249664
C -5.2091818257074625 0.6172126487734783 -0.5257634963114037
C -5.547153383413605 -0.8351676530344473 -0.8702208083669165
N -4.975093646356755 -1.2490442857204869 -2.1454135718604266
H 6.524638215632256 0.4112230757233585 -0.6362891464627225
H 6.761453322836024 -1.1510119340985583 -0.24170260129716953
H 5.134995421466924 -1.840748432338688 -1.9004698261877233
H 4.807524387883745 -0.13576581882132263 -2.1895600580914873
H 3.1724312416499987 -1.2414717458772686 -0.6591007500627829
H 4.453769784086181 -1.5872994818643813 0.4964022410867378
H 4.86998802017747 0.8846893518123701 0.7552765282809855
H 3.5800386819079417 1.2216208055968503 -0.38342611352393213
H 3.343255156752368 -0.15125310812385015 2.3437862711879713
H 2.873905891439932 1.4978798237971915 1.9691670992652068
H 1.5303214922250692 -1.047019326682332 0.9212756448055167
H 0.9430541111749431 0.029273987998932306 2.1740617324039317
H 1.3643741889206187 0.8120892003068474 -0.7576194963095647
H 0.7765742730271917 1.8997593561932635 0.4963799352031943
H -0.9749268085919148 0.9215306744532253 -1.0080364906332775
H -0.6101396421121981 -0.6885655187816035 -0.39708730948478943
H -1.260494449532448 0.05406499317678161 1.9165677421945835
H -1.622205192928083 1.6624818323460318 1.3007490723259112
H -3.620519552684024 0.1980548059450839 1.6429219310416672
H -3.000531236543494 -0.936260721359795 0.44628033587390203
H -3.2116874046116233 0.7829834637123795 -1.3372698494751487
H -3.621366862420645 2.006134309498742 -0.14627468078994915
H -5.628485029051291 1.2754254047856517 -1.2977207176362617
H -5.7210754576504765 0.8785999419605931 0.40899518499562004
H -5.210167490648993 -1.5107761660155663 -0.07737468297269211
H -6.636544072298564 -0.935822357115034 -0.9306779352547621
H -5.242950271241502 -2.213625508157687 -2.3373088829135926
H -3.958020303481078 -1.246591715776955 -2.085154432428152


--Link1--
%nprocshared=7
%mem=14GB
%Oldchk=QFTYSVGGYOXFRQ-UHFFFAOYSA-N_conf_4_0.chk
%Chk=QFTYSVGGYOXFRQ-UHFFFAOYSA-N_conf_4_1.chk
# freq B3LYP/6-31G** SCRF=(Solvent=water) volume NMR pop=NPA density=current Geom=AllCheck Guess=Read


--Link1--
%nprocshared=7
%mem=14GB
%Oldchk=QFTYSVGGYOXFRQ-UHFFFAOYSA-N_conf_4_1.chk
%Chk=QFTYSVGGYOXFRQ-UHFFFAOYSA-N_conf_4_2.chk
# TD(NStates=10, Root=1) B3LYP/6-31G** SCRF=(Solvent=water) volume pop=NPA density=current Geom=AllCheck Guess=Read



