%nprocshared=7
%mem=14GB
%Chk=QFTYSVGGYOXFRQ-UHFFFAOYSA-N_conf_2_0.chk
# opt=CalcFc B3LYP/6-31G** SCRF=(Solvent=water) scf=xqc 

QFTYSVGGYOXFRQ-UHFFFAOYSA-N_conf_2

0 1
N -3.9665576268728717 2.247361271851136 -2.9276071031455233
C -3.1208008142164276 1.3078866898647832 -2.198869950972934
C -3.9574280167296094 0.5122562150300671 -1.1970833557004223
C -3.12094077705862 -0.4377890518288958 -0.33291699413322995
C -2.478681273064818 -1.5747668880423003 -1.1316114943734012
C -1.8125538436194435 -2.635091985907809 -0.2478644683761199
C -0.6936239951831561 -2.1305495240794574 0.6687136853917259
C 0.4715853811747549 -1.4900298636380516 -0.08823271873932913
C 1.6041706283900434 -1.0995128369126699 0.8652042567721092
C 2.7645701700370706 -0.45003148156255796 0.10856567265276543
C 3.9701885211481045 -0.13002995282797644 0.9975506166943113
C 3.7053287044339225 0.8273509232938933 2.1644118452165
C 3.18530758447381 2.194585701267609 1.7202769813517031
N 3.0432643058221225 3.094801977115738 2.860585279450567
H -3.38738167054065 2.809061235566422 -3.5505544710521026
H -4.3963372716606655 2.9004159161836855 -2.27343324665893
H -2.329762375476438 1.8593665466817155 -1.6791808411758582
H -2.6445614607220196 0.6385852324314355 -2.9214692563885283
H -4.479438700615755 1.2077725845397382 -0.5269761772135476
H -4.732565030970541 -0.05818486367022287 -1.7242938575812654
H -2.3506884315488947 0.14035643108556028 0.19007958568296648
H -3.7751121724891403 -0.8660820152610564 0.4364572486754958
H -1.7453539296308207 -1.1758747782567964 -1.8401914010474423
H -3.2505104364375237 -2.0712828327885213 -1.7330198052612542
H -1.4110170576849632 -3.4235969865602467 -0.8965408039589734
H -2.580755685745415 -3.111340957482217 0.3741353461376662
H -1.0980616548567805 -1.4206730880151242 1.3993736780766213
H -0.3186592915377685 -2.984738368732531 1.246661279522966
H 0.1285124888349295 -0.5946576105956877 -0.6186849290181968
H 0.8499458553236641 -2.1912437708063637 -0.8416729619841038
H 1.9633604215181508 -1.9900747582440483 1.394672677963561
H 1.2125080230227163 -0.40726594057568094 1.6189420706178248
H 3.1001550205720996 -1.1306074054737463 -0.6842343524403977
H 2.4178006652310144 0.45915038054663465 -0.395713380792136
H 4.3693621922361485 -1.0678293225785402 1.4040490773138727
H 4.762054093159134 0.29257623492065415 0.36639092957504854
H 4.648190369329606 0.9583004208399666 2.711509085259891
H 3.0031747253867915 0.369369636273252 2.871358290306999
H 3.871065844470635 2.6452170357906457 0.994965285513642
H 2.209131549907854 2.0994705562923626 1.2350673874040816
H 3.9454398377563034 3.204541712978832 3.3227145451532936
H 2.425675134431514 2.6728275812866356 3.5533333761759653


--Link1--
%nprocshared=7
%mem=14GB
%Oldchk=QFTYSVGGYOXFRQ-UHFFFAOYSA-N_conf_2_0.chk
%Chk=QFTYSVGGYOXFRQ-UHFFFAOYSA-N_conf_2_1.chk
# freq B3LYP/6-31G** SCRF=(Solvent=water) volume NMR pop=NPA density=current Geom=AllCheck Guess=Read


--Link1--
%nprocshared=7
%mem=14GB
%Oldchk=QFTYSVGGYOXFRQ-UHFFFAOYSA-N_conf_2_1.chk
%Chk=QFTYSVGGYOXFRQ-UHFFFAOYSA-N_conf_2_2.chk
# TD(NStates=10, Root=1) B3LYP/6-31G** SCRF=(Solvent=water) volume pop=NPA density=current Geom=AllCheck Guess=Read



