%nprocshared=7
%mem=14GB
%Chk=QFTYSVGGYOXFRQ-UHFFFAOYSA-N_conf_0_0.chk
# opt=CalcFc B3LYP/6-31G** SCRF=(Solvent=water) scf=xqc 

QFTYSVGGYOXFRQ-UHFFFAOYSA-N_conf_0

0 1
N 7.425856675833653 -0.44282232319709214 0.18516862220669691
C 6.04385681572643 -0.029469931639319585 0.4054354284904982
C 5.39529732836743 0.3669381463877151 -0.9204390661878201
C 3.973139678449468 0.9132226578889729 -0.7594113773340376
C 2.9734094667170923 -0.13137599933146835 -0.2579506426048916
C 1.5507582927020658 0.4346822060342153 -0.22372724117756626
C 0.5514172365807698 -0.6102535185694533 0.2779216717066104
C -0.8705310221868962 -0.0648283767037019 0.4477611866447317
C -1.5391048813189887 0.30995726026546316 -0.8776025906695861
C -2.960904937610019 0.8560939263584605 -0.7079998969929903
C -3.9614868790726976 -0.18890312918424138 -0.2071101856186648
C -5.384237146449204 0.38050327552234364 -0.17462829662361087
C -6.432084770498873 -0.6457654496268744 0.2601190200699335
N -6.223656471653816 -1.0904108378974022 1.6327993456638836
H 7.447163695267383 -1.2494442625904103 -0.4375653202903616
H 7.830056418004862 -0.7527486620145393 1.0679145946041582
H 5.499426273218235 -0.8558055672608812 0.8727446671568878
H 6.031204570703464 0.8172717488594712 1.099728694524895
H 6.004023660361738 1.1430128520042027 -1.4024637302267546
H 5.381372228746119 -0.4916148766321768 -1.6037601863504376
H 3.639577998268478 1.288244108997788 -1.7350483491864332
H 3.984263717178635 1.7728015547517384 -0.07822102776480437
H 3.001865956010157 -1.0116510231637255 -0.9113710019245792
H 3.2507529969558537 -0.4634211213205291 0.7486455942240349
H 1.2743217787810406 0.766849003767842 -1.2303617651835708
H 1.522362855464675 1.3148745176956784 0.429780339379802
H 0.5374970508525392 -1.4686546731268124 -0.4046685507786495
H 0.8890987761740892 -0.9870809283377211 1.2515266085191321
H -0.8534542727925725 0.8055777536731229 1.1146153263538954
H -1.462001919218144 -0.837995989142601 0.9506122157489
H -1.5565525596876575 -0.5605728765686996 -1.5442857886238837
H -0.9471658370662152 1.0827166212804324 -1.3805645998537857
H -3.2976669115792 1.2335978119597935 -1.6816509022663975
H -2.946903266224057 1.7140499749295943 -0.024847354949336962
H -3.6782036465889636 -0.5218564588248458 0.7967064369363991
H -3.9342417553500924 -1.067267701731802 -0.8630589370371207
H -5.418551318516263 1.2514103097000713 0.4921562413251863
H -5.651071914969704 0.7407459428240939 -1.1759815048577438
H -7.429020227331735 -0.19891999517014813 0.17795743869384148
H -6.406018807386519 -1.5133343991972812 -0.4079765480112375
H -6.980163049756777 -1.7170865644753373 1.903975729163776
H -6.273701875105844 -0.2912650071938561 2.2633272665787207


--Link1--
%nprocshared=7
%mem=14GB
%Oldchk=QFTYSVGGYOXFRQ-UHFFFAOYSA-N_conf_0_0.chk
%Chk=QFTYSVGGYOXFRQ-UHFFFAOYSA-N_conf_0_1.chk
# freq B3LYP/6-31G** SCRF=(Solvent=water) volume NMR pop=NPA density=current Geom=AllCheck Guess=Read


--Link1--
%nprocshared=7
%mem=14GB
%Oldchk=QFTYSVGGYOXFRQ-UHFFFAOYSA-N_conf_0_1.chk
%Chk=QFTYSVGGYOXFRQ-UHFFFAOYSA-N_conf_0_2.chk
# TD(NStates=10, Root=1) B3LYP/6-31G** SCRF=(Solvent=water) volume pop=NPA density=current Geom=AllCheck Guess=Read



