%nprocshared=2
%mem=4GB
%Chk=OYTKINVCDFNREN-UHFFFAOYSA-N_conf_1_0.chk
# opt=CalcFc B3LYP/6-31G** SCRF=(Solvent=water) scf=xqc 

OYTKINVCDFNREN-UHFFFAOYSA-N_conf_1

0 1
N 1.2105530538805438 -1.5859282816211615 -0.3694070124391037
C 0.17000101598771777 -0.6694412182155335 -0.08834138028346213
C 0.42523875848037335 0.7125194335895808 -0.11693415303907433
N 1.6653938737193723 1.1960309979314752 -0.5905753024655117
C -0.6522373133456345 1.5581288657542782 0.13608137590888744
N -1.870098313727635 1.1435714417024494 0.557521417140603
C -2.0282332198103314 -0.18764308164446203 0.7093980601154577
C -1.0479986572566888 -1.1217627773879395 0.4137301708545149
H 0.8609290134630503 -2.5061835380439024 -0.6196569924157137
H 1.805635196297798 -1.2123781545869308 -1.1075788058199945
H 1.8522673638415035 2.1476810764023613 -0.2874123610341158
H 2.4108197638439384 0.5678328609283281 -0.29359416019982154
H -0.5558130576331052 2.6336729614745056 0.023866361182538702
H -3.000395901641491 -0.4983749280050344 1.0813387885493682
H -1.2460615760992035 -2.1777256582779834 0.5515639939454513


--Link1--
%nprocshared=2
%mem=4GB
%Oldchk=OYTKINVCDFNREN-UHFFFAOYSA-N_conf_1_0.chk
%Chk=OYTKINVCDFNREN-UHFFFAOYSA-N_conf_1_1.chk
# freq B3LYP/6-31G** SCRF=(Solvent=water) volume NMR pop=NPA density=current Geom=AllCheck Guess=Read


--Link1--
%nprocshared=2
%mem=4GB
%Oldchk=OYTKINVCDFNREN-UHFFFAOYSA-N_conf_1_1.chk
%Chk=OYTKINVCDFNREN-UHFFFAOYSA-N_conf_1_2.chk
# TD(NStates=10, Root=1) B3LYP/6-31G** SCRF=(Solvent=water) volume pop=NPA density=current Geom=AllCheck Guess=Read



