%nprocshared=2
%mem=4GB
%Chk=OYTKINVCDFNREN-UHFFFAOYSA-N_conf_0_0.chk
# opt=CalcFc B3LYP/6-31G** SCRF=(Solvent=water) scf=xqc 

OYTKINVCDFNREN-UHFFFAOYSA-N_conf_0

0 1
N -1.5904972288042023 -1.253784801782161 -0.12418824931932786
C -0.333854602187801 -0.6047909182220936 -0.08732084878391867
C -0.26896985023241526 0.7906685819521021 0.06842121684424864
N -1.4484389136081703 1.5667057768060435 0.01619597068691707
C 0.9987676072482709 1.3675863015376755 0.062185618408664343
N 2.1589226728128614 0.6701022939568271 0.07658489270481507
C 2.0475182145412685 -0.6744295324776513 0.07068080665881708
C 0.8394964255515801 -1.3502106913740026 0.0009445162946741413
H -2.261279964746704 -0.6727643941276771 -0.625216745126807
H -1.5374754917236675 -2.1803389389651704 -0.5370002131357672
H -1.327745373874678 2.4848199349795643 0.4344891035100131
H -2.20886827115693 1.0598714010757826 0.46714485429657615
H 1.1209385395971248 2.446347789490912 0.06782078716490915
H 2.9876813419906796 -1.2165435363231643 0.11762776475572236
H 0.8238048945926462 -2.4332392665267157 -0.008369474959571565


--Link1--
%nprocshared=2
%mem=4GB
%Oldchk=OYTKINVCDFNREN-UHFFFAOYSA-N_conf_0_0.chk
%Chk=OYTKINVCDFNREN-UHFFFAOYSA-N_conf_0_1.chk
# freq B3LYP/6-31G** SCRF=(Solvent=water) volume NMR pop=NPA density=current Geom=AllCheck Guess=Read


--Link1--
%nprocshared=2
%mem=4GB
%Oldchk=OYTKINVCDFNREN-UHFFFAOYSA-N_conf_0_1.chk
%Chk=OYTKINVCDFNREN-UHFFFAOYSA-N_conf_0_2.chk
# TD(NStates=10, Root=1) B3LYP/6-31G** SCRF=(Solvent=water) volume pop=NPA density=current Geom=AllCheck Guess=Read



