%nprocshared=8
%mem=16GB
%Chk=FZIHVNZJLMYTFH-QPLCGJKRSA-N_conf_3_0.chk
# opt=CalcFc B3LYP/6-31G** SCRF=(Solvent=water) scf=xqc 

FZIHVNZJLMYTFH-QPLCGJKRSA-N_conf_3

0 1
N 4.191513888852157 -2.6903854455415495 -2.974738439918209
C 3.2658128721104154 -1.9923171428527378 -2.189228307264917
C 3.4778484991251553 -1.837345289676571 -0.8180892585167372
C 2.610965471475852 -1.0589894926278551 -0.04523327478695975
C 1.5391426403993522 -0.3811946501675761 -0.6405128117196632
C 0.6413752242011486 0.47271103172333895 0.19923859087879883
C 1.26302562094902 1.5753186296394008 0.9974626364485585
C 1.920738379583347 2.6253000178142254 0.34351459226578307
C 2.5366065667838815 3.641496085201757 1.0785962332637005
C 2.506043318333599 3.6144794715529143 2.471812738023181
C 1.8665054889347417 2.5683128671140127 3.1329685880974654
C 1.2539091182894004 1.5495671787755936 2.400035799225256
C -0.7070296875064072 0.24192456970877257 0.25749303852991323
C -1.3188340361753113 -0.9377662420718368 -0.4279258278529379
C -1.014662466065821 -2.24681996412861 -0.03783409541610971
C -1.629406741036234 -3.3346466655385676 -0.6649422508728775
C -2.5977295515943233 -3.136413309047432 -1.6512574181813453
N -3.1292382623721084 -4.22667549570325 -2.3479939817886746
C -2.862655650291783 -1.8335439375955902 -2.075268415594029
C -2.249329225883836 -0.7408144960372343 -1.4544079661217044
C -1.6162456623389345 1.1544676960768128 1.0175791872908482
C -1.7855497197020693 2.4951351606729766 0.6454364412995434
C -2.6611460406413836 3.322190655257551 1.353491395106175
C -3.3877686137798757 2.812689543520761 2.428332193987607
C -3.2426394918714427 1.4766819796343087 2.7967102512179083
C -2.3632091400945137 0.6503603931141733 2.093570408172584
C 1.3815972225751378 -0.4670583798347448 -2.029715132105588
C 2.2410285573664166 -1.2614453362941813 -2.7945631435240017
H 3.7946134556742495 -3.036399159434403 -3.8446108114499586
H 4.683741118097962 -3.4173583357703845 -2.464505888255727
H 4.31768878642026 -2.329544741466994 -0.3334407525291552
H 2.789296726408954 -0.9734771216728263 1.0242675500174037
H 1.958951684615252 2.6554819842966007 -0.7430597031131614
H 3.0449461016030908 4.452064266202306 0.5617193472842706
H 2.9871222450340444 4.405424493837154 3.041505170975961
H 1.8446063596708993 2.5407406489719313 4.219075207898795
H 0.7659964436978021 0.7348622780723788 2.9293657326210427
H -0.28491313408069807 -2.430775461063441 0.7471153085065559
H -1.3452864492874899 -4.340272148498223 -0.36827869112390066
H -3.155501318350687 -5.08495562389416 -1.8071927834465025
H -4.014203898666668 -4.029922710521019 -2.805430048970339
H -3.553699696563161 -1.654173796874407 -2.8951440441523646
H -2.495783556009133 0.26457524557313256 -1.7866016642956102
H -1.2327741823791316 2.905534968382245 -0.1956423289443016
H -2.774170182635037 4.363501758615911 1.064603245386104
H -4.069883464926472 3.457873745388979 2.9763664003782715
H -3.815800492605009 1.0748855072290928 3.6284183701506425
H -2.2645911838298627 -0.3927500366566554 2.388052337414871
H 0.5856128084810575 0.08001017267156632 -2.529212746123392
H 2.103363250006471 -1.3005453660781883 -3.871900978373377


--Link1--
%nprocshared=8
%mem=16GB
%Oldchk=FZIHVNZJLMYTFH-QPLCGJKRSA-N_conf_3_0.chk
%Chk=FZIHVNZJLMYTFH-QPLCGJKRSA-N_conf_3_1.chk
# freq B3LYP/6-31G** SCRF=(Solvent=water) volume NMR pop=NPA density=current Geom=AllCheck Guess=Read


--Link1--
%nprocshared=8
%mem=16GB
%Oldchk=FZIHVNZJLMYTFH-QPLCGJKRSA-N_conf_3_1.chk
%Chk=FZIHVNZJLMYTFH-QPLCGJKRSA-N_conf_3_2.chk
# TD(NStates=10, Root=1) B3LYP/6-31G** SCRF=(Solvent=water) volume pop=NPA density=current Geom=AllCheck Guess=Read



