%nprocshared=8
%mem=16GB
%Chk=FZIHVNZJLMYTFH-QPLCGJKRSA-N_conf_0_0.chk
# opt=CalcFc B3LYP/6-31G** SCRF=(Solvent=water) scf=xqc 

FZIHVNZJLMYTFH-QPLCGJKRSA-N_conf_0

0 1
N 4.1418148189358455 -2.2595374988100563 3.314563545411705
C 3.1841826106928695 -1.6140414300774146 2.523046648209987
C 2.693903285386354 -0.36020250736739884 2.8938707144701343
C 1.824691711818606 0.34476579357714215 2.054825258095094
C 1.4582348286755962 -0.18131459763189628 0.8106856365805347
C 0.5496441001514776 0.5923860701558076 -0.088419872565903
C 1.0244823333599367 1.9102327886973904 -0.6095691117020154
C 2.1452224598788345 1.964217293254132 -1.450026867242293
C 2.6149479009313485 3.1901818311653396 -1.9255463719623953
C 1.9744911683788149 4.372574314357813 -1.558727123235916
C 0.8680983216746789 4.332072123532824 -0.7120058710406493
C 0.39848831881230995 3.107268889510113 -0.2336498188423025
C -0.6844522717875375 0.10432217352361915 -0.4259455665520855
C -1.198431784282703 -1.1613179024698175 0.17959937055258623
C -1.4551429980689061 -2.271379692871442 -0.6333128538660289
C -1.959706283110318 -3.453009153048912 -0.08034206494383951
C -2.183710742649356 -3.5597238823644033 1.293835215345322
N -2.795521055297922 -4.702774110760677 1.8224700524329653
C -1.9982730709474645 -2.4287209058583437 2.091351244087582
C -1.4962955011865389 -1.2431156346739045 1.545216529406723
C -1.553227667011886 0.8227337509413272 -1.407219005624087
C -2.7850149111430227 1.34833734286965 -0.9928223190334897
C -3.618035134628361 2.001640757154634 -1.903377878714724
C -3.231367097917601 2.127937582564714 -3.2365823996139813
C -2.0153350690614635 1.5965843898529584 -3.6627768631989857
C -1.1822574521570361 0.9408665379671334 -2.7542589030320084
C 2.010851108702219 -1.4025282138377217 0.40618767028837577
C 2.8775838045836624 -2.1026766960868133 1.251466663290536
H 4.072340297483496 -2.0350571824639423 4.30191574018475
H 4.198907169092825 -3.2593481266294706 3.1490289960757107
H 2.9852214624203084 0.08336169852060853 3.8418846319238664
H 1.4465868781963358 1.312548660385903 2.374632603216502
H 2.658151773768127 1.050129146067104 -1.739032109458923
H 3.482339403356776 3.22137460068402 -2.579370153379264
H 2.3397407641465553 5.326389795435467 -1.9300454470475592
H 0.36931784074737745 5.253233932217967 -0.4232944494296907
H -0.46219680874010605 3.0907860556875306 0.4301083774587109
H -1.276459975850541 -2.220658745454278 -1.704452607353067
H -2.177449417162098 -4.290297204623952 -0.7374660253163148
H -2.6083706513831197 -5.547183232096708 1.2913223529576463
H -2.632101609508486 -4.828234401568535 2.816331042608599
H -2.2423733380832207 -2.4582307678064357 3.149501986930974
H -1.3479456665508647 -0.38216863148932806 2.1918561469046915
H -3.1017394768498288 1.251617630021798 0.04278994472476106
H -4.569292471461245 2.4090257888816518 -1.5717476867245692
H -3.879394764992906 2.6378916272232362 -3.9443862581438194
H -1.7138534925385942 1.6921409047245055 -4.7023015391467835
H -0.23906734940187818 0.5267078253317631 -3.10138744260206
H 1.7775938046209685 -1.8131294251187942 -0.5727474452150378
H 3.3101798959573925 -3.0366793611954592 0.9043236838313767


--Link1--
%nprocshared=8
%mem=16GB
%Oldchk=FZIHVNZJLMYTFH-QPLCGJKRSA-N_conf_0_0.chk
%Chk=FZIHVNZJLMYTFH-QPLCGJKRSA-N_conf_0_1.chk
# freq B3LYP/6-31G** SCRF=(Solvent=water) volume NMR pop=NPA density=current Geom=AllCheck Guess=Read


--Link1--
%nprocshared=8
%mem=16GB
%Oldchk=FZIHVNZJLMYTFH-QPLCGJKRSA-N_conf_0_1.chk
%Chk=FZIHVNZJLMYTFH-QPLCGJKRSA-N_conf_0_2.chk
# TD(NStates=10, Root=1) B3LYP/6-31G** SCRF=(Solvent=water) volume pop=NPA density=current Geom=AllCheck Guess=Read



