%nprocshared=8
%mem=16GB
%Chk=FZIHVNZJLMYTFH-QPLCGJKRSA-N_conf_1_0.chk
# opt=CalcFc B3LYP/6-31G** SCRF=(Solvent=water) scf=xqc 

FZIHVNZJLMYTFH-QPLCGJKRSA-N_conf_1

0 1
N -2.5944567831776957 5.163789973022439 0.05408524933249417
C -2.029959837036718 3.8862065287122216 -0.04867042601287039
C -1.7108720532093735 3.3560021680789096 -1.3003538401501025
C -1.250684791291738 2.0408734289395096 -1.423627694066803
C -1.1358009945115048 1.220949580235525 -0.294964764868506
C -0.6632427591346302 -0.18888266776998783 -0.44247986972595754
C -1.4965401136140017 -1.1334548243531297 -1.2469672393614848
C -1.0284540350273426 -1.6639303632503455 -2.457541138553396
C -1.8283115094844378 -2.528266759027654 -3.207614413601966
C -3.1067500685498897 -2.859332787581117 -2.7617206498057034
C -3.5887481419710374 -2.3245428058922184 -1.5681710888943996
C -2.7893076962241126 -1.4619129163946518 -0.8155368129699487
C 0.5021000934650112 -0.6038398787107132 0.14483063062954227
C 1.385504301604363 0.36119050191312585 0.8664958625041961
C 1.5828464658769574 0.22768519547669488 2.245838377212048
C 2.422505919872566 1.1122806239388632 2.9304507670971733
C 3.118324494154948 2.1107123137842407 2.245728626701364
N 3.862262211941412 3.0632885815411544 2.9522725405535346
C 2.8845428928490304 2.2722461834722165 0.8785642338811562
C 2.048450590772909 1.3899006037002901 0.18665871746213145
C 0.925006343348784 -2.035872147677576 0.08403543580533544
C 2.096462473602622 -2.3877861362553467 -0.6009078441377567
C 2.5164309109710765 -3.7186517189432813 -0.6469754521884716
C 1.774536159059043 -4.707096420906036 -0.0023293526855964874
C 0.6157650129472699 -4.366459663901132 0.6934700267030549
C 0.1954630107561187 -3.035934121704755 0.7424002382124956
C -1.5322683741087542 1.7275527909970334 0.9484673265554499
C -1.9882837635059647 3.0444860122288264 1.064498696874724
H -2.4923686533802196 5.575879675737078 0.9764041295024605
H -2.3006922205230333 5.796749691985398 -0.6829267025312055
H -1.816940023173976 3.962766161299992 -2.1951977047175615
H -0.9938167857159248 1.6589328649510966 -2.408420205868154
H -0.03566574723290916 -1.4097105405437955 -2.819825588753912
H -1.4524905840934148 -2.942212761608239 -4.13929915849444
H -3.729045590982133 -3.5314569315128392 -3.3465442914534815
H -4.588235092591659 -2.5757308941940895 -1.2236063691360748
H -3.1800973050817554 -1.0466128955058405 0.11024075371309668
H 1.0729932356749436 -0.5565573616077457 2.799721008789671
H 2.529902215883142 1.0094122370939451 4.006610835085945
H 4.241165446757834 2.7166072280878955 3.8277399930115674
H 4.562540637260219 3.5336075738175707 2.387890915521768
H 3.353260852419857 3.087679944175965 0.33496509369987665
H 1.9046705353212146 1.5234499359017186 -0.882337503495286
H 2.6867598203508964 -1.6258086635836948 -1.1038650605375995
H 3.423209140975218 -3.982558123749653 -1.1844049869080657
H 2.100684858747453 -5.743082640426486 -0.03993636557348942
H 0.037436425617618334 -5.135721362520829 1.1979286331732786
H -0.707685420071786 -2.7834444838355625 1.2921946774847937
H -1.4947836924311697 1.099961353152324 1.8349658211355013
H -2.307322014105112 3.406648719212812 2.0377659338489376


--Link1--
%nprocshared=8
%mem=16GB
%Oldchk=FZIHVNZJLMYTFH-QPLCGJKRSA-N_conf_1_0.chk
%Chk=FZIHVNZJLMYTFH-QPLCGJKRSA-N_conf_1_1.chk
# freq B3LYP/6-31G** SCRF=(Solvent=water) volume NMR pop=NPA density=current Geom=AllCheck Guess=Read


--Link1--
%nprocshared=8
%mem=16GB
%Oldchk=FZIHVNZJLMYTFH-QPLCGJKRSA-N_conf_1_1.chk
%Chk=FZIHVNZJLMYTFH-QPLCGJKRSA-N_conf_1_2.chk
# TD(NStates=10, Root=1) B3LYP/6-31G** SCRF=(Solvent=water) volume pop=NPA density=current Geom=AllCheck Guess=Read



