%nprocshared=8
%mem=16GB
%Chk=FZIHVNZJLMYTFH-QPLCGJKRSA-N_conf_2_0.chk
# opt=CalcFc B3LYP/6-31G** SCRF=(Solvent=water) scf=xqc 

FZIHVNZJLMYTFH-QPLCGJKRSA-N_conf_2

0 1
N -2.5770058082162555 -5.162849506824949 -0.10327560788872622
C -2.214092558599252 -3.811140759862901 -0.11877074313052684
C -1.7721594987469311 -3.186522843160675 1.0492312512713806
C -1.3003133385863486 -1.869910737396865 1.0224621319824088
C -1.207032586292579 -1.1744486809812393 -0.18880282116979438
C -0.7254019051421791 0.2392926927164896 -0.24203143938265093
C -1.6865422206416132 1.2924773772064355 -0.6909280598047984
C -2.821156112587992 1.5741692741284972 0.08274217706055399
C -3.7400474699953783 2.539130481137963 -0.33446724183752635
C -3.537419298056036 3.224074090808687 -1.5314935445669415
C -2.4200046698781423 2.9418842342191573 -2.3155759842793917
C -1.5011909587274748 1.9758303676278401 -1.9010660872956964
C 0.5582243752227936 0.564801196734588 0.10686863615381413
C 1.5531041296270083 -0.4901341810209891 0.46847058151392906
C 2.09161937133125 -0.5238304167807636 1.7604455537355022
C 3.0412441546589806 -1.489934608301685 2.108476784754008
C 3.506663297636616 -2.406274580830242 1.1635173995585086
N 4.365896493979552 -3.441716070718834 1.5490754141619918
C 2.9346209994497046 -2.402453421625455 -0.11022356033867561
C 1.9881420101724794 -1.4361961812606703 -0.4670671689548513
C 1.0038395410226495 1.9912902310629805 0.13909938713710376
C 1.9879166935504409 2.4331006754999125 -0.7562561215558712
C 2.4310324941470034 3.7567894922621425 -0.7235920170752392
C 1.901044005965075 4.647135742710283 0.20886818248160738
C 0.9322621997719364 4.214842869225644 1.1130907190427293
C 0.48948143313763326 2.8910734362643007 1.0833354843443495
C -1.6053920754298854 -1.8176721066962278 -1.3669114044392334
C -2.0808245698817256 -3.132582884281838 -1.3316379973749304
H -2.9386582680086546 -5.478621592965076 0.7908429715491818
H -3.1695035060879415 -5.436489695072964 -0.8802673807869889
H -1.7909841602071717 -3.718652550688913 1.996223313702907
H -0.9883706697571933 -1.4005874679458274 1.9517566896197232
H -2.993294464285234 1.0431153327466771 1.0157505283088812
H -4.614241229071055 2.7539322982716063 0.27410996649461
H -4.251998107536708 3.9762431334978117 -1.855028043704544
H -2.2620233580863505 3.47367786203889 -3.2498731738160944
H -0.6365067377457134 1.7620255818066 -2.524116027463994
H 1.7657167652947825 0.1929791526205329 2.509923316128687
H 3.4161237302639322 -1.516484631676943 3.1277452338423117
H 4.879890696496228 -3.8547461950584374 0.7776169623324355
H 4.9655551137761 -3.2054996435631256 2.3328252874235473
H 3.2205366340737727 -3.153055311319027 -0.8417679982871048
H 1.5801409105773 -1.4417342176457955 -1.4743696072865524
H 2.4129248111987116 1.7470958972478914 -1.4848820061274255
H 3.1909459568866847 4.0913431626930095 -1.4245445472707183
H 2.245028509943144 5.677739859566285 0.23286341917324704
H 0.5198825004918055 4.907388789380873 1.8417803440851277
H -0.262962455469376 2.5656165866422045 1.7971052952553603
H -1.5355428543168972 -1.3049064282568814 -2.3229123651275225
H -2.349167947322262 -3.6206051041795724 -2.2643660821493645


--Link1--
%nprocshared=8
%mem=16GB
%Oldchk=FZIHVNZJLMYTFH-QPLCGJKRSA-N_conf_2_0.chk
%Chk=FZIHVNZJLMYTFH-QPLCGJKRSA-N_conf_2_1.chk
# freq B3LYP/6-31G** SCRF=(Solvent=water) volume NMR pop=NPA density=current Geom=AllCheck Guess=Read


--Link1--
%nprocshared=8
%mem=16GB
%Oldchk=FZIHVNZJLMYTFH-QPLCGJKRSA-N_conf_2_1.chk
%Chk=FZIHVNZJLMYTFH-QPLCGJKRSA-N_conf_2_2.chk
# TD(NStates=10, Root=1) B3LYP/6-31G** SCRF=(Solvent=water) volume pop=NPA density=current Geom=AllCheck Guess=Read



