%nprocshared=10
%mem=20GB
%Chk=PICLBAFTFYTURY-HQZQWKOLSA-N_conf_0_0.chk
# opt=CalcFc B3LYP/6-31G** SCRF=(Solvent=water) scf=xqc 

PICLBAFTFYTURY-HQZQWKOLSA-N_conf_0

0 1
C -6.683793521285624 2.887371529395876 1.0651137822937569
C -5.695368746140087 1.9598319048449762 0.36824016808250354
C -6.216061012876527 0.5154051940934887 0.22499688968313203
N -5.395408057707478 -0.2808094815105938 -0.6974895186962554
C -3.9940434544400367 -0.5262972928855872 -0.3476466693159055
C -3.2081702950796775 -0.671344894854365 -1.6577958968353435
C -1.7019255358589078 -0.8173931480565136 -1.4148487023395282
C -1.3494418817798925 -1.437750586415133 -0.05096644033377015
C 0.04155519296266539 -2.1048607626535762 -0.05537934436670498
C 1.213496979247785 -1.1707724451180563 -0.4205882772334292
C 2.5333194416963174 -1.9505218889119424 -0.45321477812242655
C 3.6933909501912163 -1.0950837385724106 -0.9740821263092576
C 3.5409428721313625 0.402389958987176 -0.648286464594518
N 4.822173263028495 1.1163252672811845 -0.7568044480850276
C 5.637880963180778 1.271451267828816 0.45729992923595886
C 6.193978606086336 -0.04688796768928533 0.9977749279466558
C 6.786801440914152 2.267695599716981 0.16855400185726677
C 7.768585462755323 1.8331285145984313 -0.9139387815922737
C 2.7296523744394805 0.6337111604248125 0.6306057580631105
C 1.3225388848066237 0.029207322672858835 0.538882868676895
C -2.42758591693986 -2.445033113000057 0.3650221827835769
C -3.8085118177968913 -1.7925481368630274 0.5115582634546406
C -6.440053246729123 -0.16925633822098718 1.5741517471471869
H -6.297128290066175 3.9115546402982906 1.0682470026008717
H -7.649498056298013 2.891743832339939 0.5497361673837552
H -6.846074525716388 2.5925253440281133 2.1060092543261475
H -5.4858833802333296 2.3713694878579594 -0.6276485030894946
H -4.7535066123196765 1.982472847424553 0.9283152859263251
H -7.2001991592359085 0.5806414573126908 -0.25843966488437564
H -5.8640661018037505 -1.1622153375082973 -0.9036479838942654
H -3.5714553260545787 0.331046406762312 0.18640669466522566
H -3.3786777885021024 0.19067056211813657 -2.3154868531732857
H -3.5665146269732166 -1.552973158409111 -2.2074027820882547
H -1.2778254907557396 -1.4107996781481846 -2.234216220707129
H -1.2340905591252982 0.17250796041411914 -1.4811440482302363
H -1.3434927403907617 -0.6375839519232928 0.7010078841932732
H 0.2293155059047216 -2.539613081078626 0.9356766345234794
H 0.02792583780538194 -2.947300577783066 -0.7599824804196047
H 1.039945389190464 -0.7858881350390455 -1.43421840668393
H 2.773384991306279 -2.303905885638913 0.5582727415672615
H 2.441874996730484 -2.8450546873526044 -1.0809356550722888
H 4.625264698958863 -1.5162338617801694 -0.5847635424209808
H 3.75753356929435 -1.2050806451035858 -2.0654362496548706
H 2.9312769721335767 0.8148571791678741 -1.4661930829103342
H 4.628051542407071 2.049252767174195 -1.1236845834621196
H 5.035348357365297 1.7388809096864182 1.2454247533070555
H 5.400494836190131 -0.680784594180786 1.4040585919727429
H 6.901842921524349 0.13733741658806412 1.8134742759640805
H 6.719091883881623 -0.6165712581587338 0.22364860017967403
H 7.3464172476898515 2.4462334402403725 1.0952277778374546
H 6.35977472052442 3.2376627895865706 -0.1176846612594995
H 7.267294466299322 1.6754259415517072 -1.8738827747604114
H 8.527842108260904 2.609053469435108 -1.0588735204788275
H 8.288593007988794 0.9109528676315052 -0.6382196719414988
H 3.239753837023734 0.1825417235575847 1.4895052589808326
H 2.638679180607337 1.7052841804636345 0.845323923457063
H 0.6245062683280421 0.8071701220206275 0.2064825095336578
H 1.005140849015175 -0.2519658754203032 1.5506834597273151
H -2.4873959930959537 -3.244063955857451 -0.3864026379102437
H -2.1603678470247636 -2.9323432095018953 1.3108321811549413
H -4.566773684074112 -2.549029639509132 0.27422794025602454
H -3.959605893540124 -1.5335157111354853 1.5652965187676826
H -7.279590325251478 0.29058644458071037 2.1067483283534325
H -5.55970190477889 -0.0951482608447425 2.2196848082963427
H -6.691457827996254 -1.2276582109604592 1.444520602925258


--Link1--
%nprocshared=10
%mem=20GB
%Oldchk=PICLBAFTFYTURY-HQZQWKOLSA-N_conf_0_0.chk
%Chk=PICLBAFTFYTURY-HQZQWKOLSA-N_conf_0_1.chk
# freq B3LYP/6-31G** SCRF=(Solvent=water) volume NMR pop=NPA density=current Geom=AllCheck Guess=Read


--Link1--
%nprocshared=10
%mem=20GB
%Oldchk=PICLBAFTFYTURY-HQZQWKOLSA-N_conf_0_1.chk
%Chk=PICLBAFTFYTURY-HQZQWKOLSA-N_conf_0_2.chk
# TD(NStates=10, Root=1) B3LYP/6-31G** SCRF=(Solvent=water) volume pop=NPA density=current Geom=AllCheck Guess=Read



