%nprocshared=10
%mem=20GB
%Chk=PICLBAFTFYTURY-HQZQWKOLSA-N_conf_1_0.chk
# opt=CalcFc B3LYP/6-31G** SCRF=(Solvent=water) scf=xqc 

PICLBAFTFYTURY-HQZQWKOLSA-N_conf_1

0 1
C 5.512210028903814 2.4443990548847303 1.0173411418230305
C 5.696121969822738 1.032383634711679 1.5591325180608273
C 6.089830792890082 -0.022522922362079336 0.5046918505525808
N 5.170030269734092 -0.09582140790489815 -0.6383248727972909
C 3.805725335475668 -0.5440529705156198 -0.3262236862839875
C 2.9394418932797093 -0.37582657411574455 -1.5790129081686926
C 1.4671547598874966 -0.7197933196713736 -1.3198180845565992
C 1.2433524338173858 -1.6677625906506628 -0.13045081804113265
C -0.11414557460271402 -2.406400876630172 -0.1893325863379122
C -1.4074401645964467 -1.5776620922443547 -0.012087994783776652
C -1.3274230996790677 -0.5276206246435322 1.0986425825933928
C -2.6884415348578923 0.1183312314605359 1.3915868777567046
C -3.6738960868552963 0.07650466575438551 0.20386047369049667
N -4.657754860943047 1.151440602387244 0.3816950582265918
C -5.89385308691868 0.9944319706011181 -0.39628169504423366
C -6.852313761214949 -0.0025272671906481584 0.26286394866362406
C -6.553118754217306 2.378690544587045 -0.5830343879954796
C -6.957605274232641 3.09554747929072 0.6998344786247929
C -2.901687759891377 0.20678548973331415 -1.1139653268097438
C -1.926890821233728 -0.9617823748024548 -1.3236291444036938
C 2.396630466186187 -2.680299391470844 -0.05687786995296687
C 3.7576546564392777 -2.0064966533667072 0.1540251630249236
C 7.497577483792105 0.24773956097804536 -0.041143053449048006
H 6.433645100421957 2.8244660917892737 0.5663908761922729
H 5.239049879390193 3.123648994916827 1.8314204668788994
H 4.7160463661701595 2.4859338304037006 0.26845758781211926
H 4.77414952780122 0.7250490559194 2.0652122023642074
H 6.466993535729995 1.058026877046159 2.340092001768778
H 6.134777562276053 -0.9974415955295075 1.0048857727226346
H 5.564763142874519 -0.7026151952143344 -1.3581007704604713
H 3.3774845744874145 0.10634255393003134 0.447013405209179
H 3.0009085425707593 0.6510339333296629 -1.9615613173591846
H 3.318830559479891 -1.0254548080099686 -2.380610148427332
H 1.0599821494900472 -1.1539349186471242 -2.2413531106431046
H 0.9145997343497866 0.2103864456788381 -1.1431902599404056
H 1.2777361093594 -1.0807341269558157 0.7956186274494821
H -0.1145238546037808 -3.151638972213563 0.6187263464392735
H -0.17951046315527022 -2.9832304478625296 -1.1230265790897875
H -2.1714717589273373 -2.307110595582617 0.29991967338491493
H -0.6259554332464274 0.2656062009778395 0.8065165747582893
H -0.9340813619099985 -0.9688298537437875 2.0221010840211164
H -3.1545286385369096 -0.38949389324816747 2.2469484423758246
H -2.5064187716083675 1.1520694944709555 1.7202627650256028
H -4.17752399065215 -0.8976871320433825 0.22869448153191813
H -4.897764830579117 1.238442398136395 1.3697247055856296
H -5.665018672915269 0.629283631699231 -1.4048568783492454
H -6.443893167562997 -1.0164560853720435 0.24508712581264025
H -7.058608600113935 0.2534679856435151 1.3080111580001443
H -7.806160036262301 -0.028200964544032613 -0.27358464431862656
H -7.441995776553198 2.2677417974395078 -1.2179422761679317
H -5.860109671869865 3.0272627867485142 -1.136946172170445
H -7.6747497831521265 2.5111212303344024 1.281308469319206
H -7.427986496374167 4.053239294194911 0.4572567761908188
H -6.0873281247584075 3.30802444099607 1.3269849871451016
H -2.3344853782065544 1.1467992888919445 -1.1120646106491625
H -3.571590998393641 0.25527021387600596 -1.978522593549464
H -1.1135519692458595 -0.611887316528153 -1.965174813193395
H -2.4350962086377064 -1.7508605617829172 -1.8938885401915717
H 2.425138533202679 -3.261624583015892 -0.9876251197795312
H 2.232646124356107 -3.4030411316457827 0.7518687486556557
H 4.520200115337189 -2.6141937429661835 -0.35310464021362226
H 4.009008333652677 -2.0365033410097526 1.2224424006771972
H 8.22154829651146 0.3422803743424851 0.7764828906480494
H 7.54134726282387 1.1647610277186855 -0.6386041604317512
H 7.832339225994794 -0.5770038513884644 -0.6813017091160773


--Link1--
%nprocshared=10
%mem=20GB
%Oldchk=PICLBAFTFYTURY-HQZQWKOLSA-N_conf_1_0.chk
%Chk=PICLBAFTFYTURY-HQZQWKOLSA-N_conf_1_1.chk
# freq B3LYP/6-31G** SCRF=(Solvent=water) volume NMR pop=NPA density=current Geom=AllCheck Guess=Read


--Link1--
%nprocshared=10
%mem=20GB
%Oldchk=PICLBAFTFYTURY-HQZQWKOLSA-N_conf_1_1.chk
%Chk=PICLBAFTFYTURY-HQZQWKOLSA-N_conf_1_2.chk
# TD(NStates=10, Root=1) B3LYP/6-31G** SCRF=(Solvent=water) volume pop=NPA density=current Geom=AllCheck Guess=Read



