%nprocshared=10
%mem=20GB
%Chk=PICLBAFTFYTURY-HQZQWKOLSA-N_conf_2_0.chk
# opt=CalcFc B3LYP/6-31G** SCRF=(Solvent=water) scf=xqc 

PICLBAFTFYTURY-HQZQWKOLSA-N_conf_2

0 1
C -7.784687730609754 1.4646996027426704 0.17152008025800622
C -6.898121399201689 1.0144577511222348 -0.9837826053552208
C -5.992376401267266 -0.20388663665518286 -0.6999233745321237
N -5.034451857548918 0.14312502017723547 0.35977172936181173
C -3.87881280682641 -0.7592732697562247 0.4854672278452985
C -3.103504422099408 -0.42727304231324964 1.7786131782151051
C -1.958971494926165 0.5452074583718931 1.518815732806238
C -0.8854534932545866 -0.08857779103203851 0.6081889608430372
C -0.01885065774202267 1.02174785301786 -0.029462226331599433
C 1.4818318967552062 0.6950846399931039 -0.20719937829406543
C 2.2243466876614826 0.5949257213281367 1.1443820829718312
C 2.962176396938096 -0.7259638437200157 1.3500887223215452
C 3.829498235487896 -1.1758089713494646 0.1610325734665325
N 5.269418349592038 -0.8840948638154678 0.2717398086901547
C 5.650238833813415 0.5341200947982546 0.3296707652824106
C 6.049601267541571 0.9019137896725588 1.7604441623968938
C 6.79441699677012 0.8413756805243173 -0.6640152108017178
C 8.107997882596749 0.11303411755184972 -0.40779751472948245
C 3.2521295775222985 -0.7716212103997687 -1.2093364398616955
C 1.7521096657981372 -0.5042766701501957 -1.1262361673825287
C -1.5215306961263542 -1.0251265744539522 -0.44377817880607356
C -2.9702083432814788 -0.658846719529219 -0.7562516224782154
C -6.818116406269777 -1.4456836348275695 -0.3483203295575532
H -7.195315185476693 1.7538803563124705 1.0471382138173544
H -8.372144565598006 2.3371594689441464 -0.13216125174084184
H -8.488355251971214 0.6812328026654226 0.4677542627613024
H -6.272343574917088 1.8618363187875646 -1.293078732090508
H -7.541357761538908 0.7833444631526099 -1.8422180422426173
H -5.458984946162032 -0.40293509194059884 -1.6368139280812712
H -5.527964686075812 0.18842946494792764 1.2512092127277232
H -4.2329071391068425 -1.7910860590388953 0.5947224603753151
H -3.7689313295096407 -0.02449939422910549 2.5517852494508877
H -2.6939726498228502 -1.3561028086411249 2.1987347934300603
H -2.358317358766381 1.4648619554991598 1.0712322842151114
H -1.4957446775314092 0.8354774222687864 2.469805212376759
H -0.24479199639420704 -0.7109321485070548 1.2456435802623482
H -0.07425344317915847 1.9274236765574886 0.5893899982676839
H -0.4408009025654735 1.304131408088725 -1.0026053995468072
H 1.905406352617789 1.575304468074775 -0.7148935964563692
H 2.938023547405375 1.4244743988505246 1.2141253123232891
H 1.5346239231572352 0.7451489776867833 1.9839322449244525
H 2.2044363356552816 -1.5030218889539122 1.527064367101103
H 3.546931977166101 -0.6971929411467123 2.276212248064375
H 3.7853603474582806 -2.2747052679327284 0.19253597158408609
H 5.737247050598448 -1.330740219315952 -0.5163015918191751
H 4.81861918281013 1.1812767440419139 0.032702705616828615
H 6.433096890151113 1.9273532677000533 1.8025053245954905
H 6.825693513175338 0.23602524028847216 2.1529553741974947
H 5.195771181561927 0.847967220209678 2.441315222508306
H 6.456715282286068 0.6069481470471493 -1.6817515631376478
H 6.990828616193069 1.920418706637381 -0.6515580051479906
H 8.540798250975952 0.3931764642197932 0.5559944165335416
H 8.835482639293161 0.3779386419176394 -1.1821233372587452
H 7.9827438986604085 -0.9720473734394848 -0.4298705832937808
H 3.447809880922301 -1.570374223962948 -1.9358125200097618
H 3.742758997199836 0.12405753288849414 -1.6092415796428698
H 1.3611049338881502 -0.296743620505567 -2.1292330500975516
H 1.2499974710611261 -1.407641993190868 -0.7636780413742053
H -0.9457428004786399 -1.0293234278287995 -1.3745621049542371
H -1.4951893806750722 -2.0551759831440357 -0.06390894211773698
H -2.98974203607835 0.3582117873179575 -1.170921254268006
H -3.3488064822780905 -1.3218200850557797 -1.5437853855457209
H -6.195919026017548 -2.3468057209635647 -0.3388675998199274
H -7.291288983512556 -1.357431534384364 0.635666713255433
H -7.6092561759046635 -1.6067576532212482 -1.088499749808692


--Link1--
%nprocshared=10
%mem=20GB
%Oldchk=PICLBAFTFYTURY-HQZQWKOLSA-N_conf_2_0.chk
%Chk=PICLBAFTFYTURY-HQZQWKOLSA-N_conf_2_1.chk
# freq B3LYP/6-31G** SCRF=(Solvent=water) volume NMR pop=NPA density=current Geom=AllCheck Guess=Read


--Link1--
%nprocshared=10
%mem=20GB
%Oldchk=PICLBAFTFYTURY-HQZQWKOLSA-N_conf_2_1.chk
%Chk=PICLBAFTFYTURY-HQZQWKOLSA-N_conf_2_2.chk
# TD(NStates=10, Root=1) B3LYP/6-31G** SCRF=(Solvent=water) volume pop=NPA density=current Geom=AllCheck Guess=Read



