%nprocshared=10
%mem=20GB
%Chk=PICLBAFTFYTURY-HQZQWKOLSA-N_conf_4_0.chk
# opt=CalcFc B3LYP/6-31G** SCRF=(Solvent=water) scf=xqc 

PICLBAFTFYTURY-HQZQWKOLSA-N_conf_4

0 1
C -7.028056618760018 1.6782223972485262 1.6777215660360953
C -7.283879827283891 0.4231876243610963 0.8529220634935426
C -6.602677446648716 0.45083129224706836 -0.5303043224519215
N -5.153666826506355 0.6742719393196962 -0.47361998961560253
C -4.327819603557534 -0.3757421365671447 0.1360420059571381
C -3.161781740645811 0.30102522601758697 0.8853552916756314
C -1.944808105740977 0.5315273042486793 -0.007030217366402971
C -1.3708912095208512 -0.7859905992348097 -0.5755105248194151
C -0.1021414927286084 -1.2554446915275448 0.17268916835907291
C 1.2299249386166522 -0.7410919006004806 -0.4206047180846989
C 1.3580882063458817 0.7876510109484055 -0.4191313105877899
C 2.715545543981302 1.2491292591860883 -0.9506468654109729
C 3.8792269869306812 0.6222085431316349 -0.16907282737905427
N 5.132550927458673 1.1012162473866762 -0.7630550158054693
C 6.3292078932239395 0.8099747231369079 0.03891336177903503
C 7.063579305286584 2.1373311712278413 0.24112046220833167
C 7.21201102744089 -0.2275179634831084 -0.6813538136580876
C 8.41589364493444 -0.6683160782260604 0.14050562763353452
C 3.7603794006976816 -0.9079139000021266 -0.19049474092107455
C 2.4065751239035245 -1.3727020256343478 0.3439221062207745
C -2.4282563284060146 -1.9105591191643188 -0.5661577108629909
C -3.810927610257407 -1.374142259524277 -0.9215889702361394
C -6.997944626207132 -0.7783323987163729 -1.3501695832138616
H -5.970992916980901 1.7788464473110492 1.9401477729718248
H -7.599436704791246 1.6364602850692467 2.6107434439552035
H -7.33710760206409 2.5757471186590575 1.1326038202929296
H -8.367812725838487 0.3269510700750587 0.709661716402068
H -6.974039366832908 -0.45637256397870074 1.4285807514455229
H -7.0121267660359585 1.3212852947429652 -1.0602171873183344
H -4.801168498949106 0.9056002806999954 -1.4014064300211766
H -4.89981672501809 -0.9252311979472029 0.8918946317317912
H -3.483542741969985 1.2514819231382008 1.3293873159291336
H -2.864767226509016 -0.3312858216979709 1.732768063133359
H -1.1901763149214144 1.0848403324595066 0.5605696803246644
H -2.235057974424299 1.1815620801191205 -0.8426310220536533
H -1.1004793375465862 -0.6030205450633075 -1.624425702724232
H -0.060885789011491026 -2.352743218620042 0.142140925027492
H -0.17146077593396983 -0.9859944784374409 1.2344801288317826
H 1.286021916989977 -1.0842952006004904 -1.4631302142717053
H 1.2209539720827483 1.172636387608422 0.5991236003290261
H 0.5786582355495984 1.2354461835226136 -1.0448469614667268
H 2.788314107984265 0.9879346920909916 -2.0151195421493955
H 2.767735075226771 2.343565520700574 -0.8895128413744424
H 3.8128073576422614 0.9786273783079583 0.8676935699239664
H 5.2328751985590305 0.7398510246135817 -1.7108268492915812
H 6.0580674605345415 0.425490704277886 1.0301288609954917
H 7.4266514955900576 2.547040317722417 -0.7083034732838767
H 7.92289665276931 2.0169461511323292 0.9083071400743182
H 6.404192358410747 2.8830758826801954 0.7007392123925861
H 7.564110539807302 0.17117715021566215 -1.6412635129998698
H 6.617807345338932 -1.1200070067282977 -0.9118825055191779
H 9.12284856290295 0.15226487186332005 0.2913864226015411
H 8.105665015473456 -1.045398729225194 1.1200852859883215
H 8.949405148320256 -1.4716753868826868 -0.37739896763033504
H 3.890827652677396 -1.283466266334266 -1.2138117342413588
H 4.5485923706675075 -1.3643597491672024 0.4188625233280692
H 2.3536637595875356 -2.465823326851122 0.27310845353576313
H 2.335105415250859 -1.1206097115698548 1.4099550819238573
H -2.1373769120964408 -2.6856152661968054 -1.2856415632381784
H -2.469921959791897 -2.3970283000208497 0.4169499669343119
H -4.511469968043517 -2.211578266265217 -1.013708715400127
H -3.7561245240292824 -0.9097672754440037 -1.9150845496997966
H -6.749150609060705 -1.7106030350013623 -0.8340022803523298
H -8.078974277553598 -0.7836547551573961 -1.5297266321324592
H -6.505441486520273 -0.7771246616001259 -2.3284647228808097


--Link1--
%nprocshared=10
%mem=20GB
%Oldchk=PICLBAFTFYTURY-HQZQWKOLSA-N_conf_4_0.chk
%Chk=PICLBAFTFYTURY-HQZQWKOLSA-N_conf_4_1.chk
# freq B3LYP/6-31G** SCRF=(Solvent=water) volume NMR pop=NPA density=current Geom=AllCheck Guess=Read


--Link1--
%nprocshared=10
%mem=20GB
%Oldchk=PICLBAFTFYTURY-HQZQWKOLSA-N_conf_4_1.chk
%Chk=PICLBAFTFYTURY-HQZQWKOLSA-N_conf_4_2.chk
# TD(NStates=10, Root=1) B3LYP/6-31G** SCRF=(Solvent=water) volume pop=NPA density=current Geom=AllCheck Guess=Read



