%nprocshared=5
%mem=10GB
%Chk=CAPCBAYULRXQAN-VIFPVBQESA-N_conf_2_0.chk
# opt=CalcFc B3LYP/6-31G** SCRF=(Solvent=water) scf=xqc 

CAPCBAYULRXQAN-VIFPVBQESA-N_conf_2

0 1
C -3.7341161416409685 -0.9414329025203839 -0.3640367453639158
C -2.76172962969891 -0.43968649609173444 0.7018736665586403
N -3.440975835718273 0.5950558065719953 1.4877320066884006
C -1.4606123520394199 0.13531027954248076 0.11206818279429681
C -0.6007720133255555 -0.9159304809716796 -0.5936225941210571
C 0.6409039834475524 -0.35889928464605886 -1.3135347039561638
N 1.721234414639577 0.26145111587444153 -0.5343877901207214
C 2.2005966510205583 -0.534355129042888 0.6024214482651751
C 2.767832937264872 -1.889946511968129 0.19167393107075412
C 1.454363992231001 1.657794220747268 -0.1722932425744199
C 2.7416384676792886 2.4755272036160907 -0.11712215992766181
H -3.9547415054899977 -0.16524853759202537 -1.1053209199391225
H -4.682467625113848 -1.2550801167791041 0.08772110897095943
H -3.3320771759010728 -1.811393079262523 -0.8918467608192701
H -2.519613374918356 -1.2696202889411239 1.375775323675515
H -2.810437395074548 0.9512956744492173 2.2050139676158516
H -3.6675598207130706 1.3898559536531991 0.8906760941389174
H -0.8811493218173452 0.5687775895772823 0.9335407025201811
H -1.692761579601084 0.9495008269409092 -0.5861967726244441
H -1.2015645920158153 -1.4212907279773346 -1.3584384200991273
H -0.31178176583001105 -1.6940652087786734 0.12184404124729374
H 1.0842211593616193 -1.1902487386704186 -1.8774062484913232
H 0.3108510150925917 0.3355926692779019 -2.097838934204696
H 1.4118521759435083 -0.6736818321276172 1.3510302920423796
H 3.0128278175982106 -0.0018352811833013847 1.1099671459461316
H 3.2134908507586846 -2.385337727109015 1.0607619375326522
H 1.9962038747272204 -2.55630727490776 -0.2047400674263043
H 3.550636119512362 -1.7757915207194952 -0.565625444742192
H 0.8125918720273666 2.1343996521956474 -0.923514474396409
H 0.9335088815043401 1.7375693924902305 0.7876449163069563
H 2.505525276412875 3.5291447231043147 0.06581647714064504
H 3.287218322766812 2.4151818654837554 -1.0649164240274878
H 3.40686231690974 2.143694165764527 0.6852804603197132


--Link1--
%nprocshared=5
%mem=10GB
%Oldchk=CAPCBAYULRXQAN-VIFPVBQESA-N_conf_2_0.chk
%Chk=CAPCBAYULRXQAN-VIFPVBQESA-N_conf_2_1.chk
# freq B3LYP/6-31G** SCRF=(Solvent=water) volume NMR pop=NPA density=current Geom=AllCheck Guess=Read


--Link1--
%nprocshared=5
%mem=10GB
%Oldchk=CAPCBAYULRXQAN-VIFPVBQESA-N_conf_2_1.chk
%Chk=CAPCBAYULRXQAN-VIFPVBQESA-N_conf_2_2.chk
# TD(NStates=10, Root=1) B3LYP/6-31G** SCRF=(Solvent=water) volume pop=NPA density=current Geom=AllCheck Guess=Read



