%nprocshared=5
%mem=10GB
%Chk=CAPCBAYULRXQAN-VIFPVBQESA-N_conf_3_0.chk
# opt=CalcFc B3LYP/6-31G** SCRF=(Solvent=water) scf=xqc 

CAPCBAYULRXQAN-VIFPVBQESA-N_conf_3

0 1
C 3.7065659045244006 -0.6992409242690731 0.773631097488266
C 2.867325297494716 -0.11749998243656133 -0.36341859544952343
N 2.786763598528313 -1.1023946593302658 -1.442071558885043
C 1.4678217745781517 0.2703233778831374 0.147124494764925
C 0.6068453445608857 0.9621342455817942 -0.913507753281641
C -0.6538992895403665 1.657815799156222 -0.36916521905380334
N -1.723148686416525 0.8565748454827741 0.24486732747327983
C -2.168369472759786 -0.28947223891501567 -0.5596736235736853
C -2.7360379660918293 0.11262116147075057 -1.9178734806222903
C -1.4391498895326347 0.4844007047642899 1.636309915207669
C -2.719901641518737 0.348823396613626 2.4551887404250845
H 3.251070049934304 -1.6062985733086348 1.186955038800071
H 4.715158399634131 -0.9536509641905049 0.4290095344871265
H 3.8098067697635587 0.02618709458283018 1.5878767074270528
H 3.3742400396001626 0.7775742338530631 -0.7433530252577656
H 2.327521110750334 -0.6922405341600312 -2.2536688335876622
H 3.72599837345701 -1.3552230138962433 -1.7475280580364516
H 1.5814687481513172 0.9414460459833287 1.0076785868406422
H 0.9576661474779995 -0.6304500553674046 0.5056001527605261
H 1.2127193878217295 1.7332107882018484 -1.4073398962756443
H 0.33133755213829874 0.24943061279529533 -1.6982967058407403
H -1.1013299117468185 2.2118429037261307 -1.2048485841310617
H -0.3463744693422794 2.4494319473874118 0.32738677558847
H -2.9727357389976796 -0.8180196348749816 -0.035970649480931434
H -1.36135584674578 -1.018920837164781 -0.6959689046304207
H -3.536894578248889 0.8512315096008831 -1.8065358787074224
H -1.9695507392005955 0.5288032350804436 -2.5780498432145786
H -3.158281587081961 -0.7649205930297969 -2.4188618100861654
H -0.8672837654894323 -0.4471320789195501 1.7008538982370525
H -0.8388609779011705 1.2619943183884215 2.1246393848422627
H -3.338800636470184 -0.48764138222505543 2.1181402372759237
H -2.4715966406213603 0.17068364530713173 3.5068535190995154
H -3.318736660709447 1.2644375024081123 2.404017009396655


--Link1--
%nprocshared=5
%mem=10GB
%Oldchk=CAPCBAYULRXQAN-VIFPVBQESA-N_conf_3_0.chk
%Chk=CAPCBAYULRXQAN-VIFPVBQESA-N_conf_3_1.chk
# freq B3LYP/6-31G** SCRF=(Solvent=water) volume NMR pop=NPA density=current Geom=AllCheck Guess=Read


--Link1--
%nprocshared=5
%mem=10GB
%Oldchk=CAPCBAYULRXQAN-VIFPVBQESA-N_conf_3_1.chk
%Chk=CAPCBAYULRXQAN-VIFPVBQESA-N_conf_3_2.chk
# TD(NStates=10, Root=1) B3LYP/6-31G** SCRF=(Solvent=water) volume pop=NPA density=current Geom=AllCheck Guess=Read



