%nprocshared=5
%mem=10GB
%Chk=CAPCBAYULRXQAN-VIFPVBQESA-N_conf_0_0.chk
# opt=CalcFc B3LYP/6-31G** SCRF=(Solvent=water) scf=xqc 

CAPCBAYULRXQAN-VIFPVBQESA-N_conf_0

0 1
C -4.433009167999196 -0.41145159244971413 0.13665700844222015
C -2.9818307893080593 -0.07885707284657709 -0.21520998831328017
N -2.4743074797140676 -1.095965511012771 -1.1373804068332765
C -2.1207216417072123 -0.005836428077588007 1.0568353042201921
C -0.7741477525186031 0.7189251965173072 0.904673778835675
C 0.2035734881497467 0.060180795317951355 -0.07723812803969644
N 1.5339198544740358 0.7073605254546906 -0.045778851001370656
C 2.223094588240079 0.5639186978520612 -1.3406922396329257
C 2.606716428021032 -0.8551416703261316 -1.7517360270056512
C 2.330394875796935 0.24527273332187652 1.1034969548008335
C 3.6465877220768337 0.9978799788631024 1.276719966692332
H -4.858406246045392 0.35843708338531904 0.7895257966779159
H -5.055825948996515 -0.4594680111121874 -0.7636366232847394
H -4.51143431951089 -1.3735456634397911 0.6555342946223492
H -2.962013367970615 0.8934280759347781 -0.7208966363442412
H -2.5515035963562225 -2.0187391346895076 -0.7100170843451975
H -3.06310209179856 -1.1247419732575634 -1.969740769339589
H -2.6843876082850606 0.5310329536856383 1.8316047509577813
H -1.9478191857483511 -1.0138121126430995 1.4568424109874378
H -0.33169260430726777 0.7752055259218287 1.9052895706528994
H -0.9570761018605766 1.75503484690414 0.5919688098465059
H -0.21901491016122693 0.17795893657586287 -1.0812279314978614
H 0.2861544425034498 -1.0160125947931855 0.11874032097596873
H 1.5877459206972016 0.9938989114439074 -2.1262429760069583
H 3.1211730510133258 1.1922678423697666 -1.3509236112033074
H 3.332044867143785 -1.2958637209592867 -1.0616112539133127
H 3.0683819482118984 -0.83901107536791 -2.7447844598146403
H 1.7334559193045747 -1.512157418787507 -1.8060571206139953
H 2.5303783168635197 -0.8312888929477684 1.0458735635367469
H 1.7654814466432647 0.40177587145500704 2.028656627558753
H 4.1138133152867455 0.7156010104523024 2.2262218764792294
H 3.483621540354432 2.08057017757167 1.2935581425801095
H 4.359755087507351 0.7631437096834962 0.4809749293229379


--Link1--
%nprocshared=5
%mem=10GB
%Oldchk=CAPCBAYULRXQAN-VIFPVBQESA-N_conf_0_0.chk
%Chk=CAPCBAYULRXQAN-VIFPVBQESA-N_conf_0_1.chk
# freq B3LYP/6-31G** SCRF=(Solvent=water) volume NMR pop=NPA density=current Geom=AllCheck Guess=Read


--Link1--
%nprocshared=5
%mem=10GB
%Oldchk=CAPCBAYULRXQAN-VIFPVBQESA-N_conf_0_1.chk
%Chk=CAPCBAYULRXQAN-VIFPVBQESA-N_conf_0_2.chk
# TD(NStates=10, Root=1) B3LYP/6-31G** SCRF=(Solvent=water) volume pop=NPA density=current Geom=AllCheck Guess=Read



