%nprocshared=5
%mem=10GB
%Chk=CAPCBAYULRXQAN-VIFPVBQESA-N_conf_1_0.chk
# opt=CalcFc B3LYP/6-31G** SCRF=(Solvent=water) scf=xqc 

CAPCBAYULRXQAN-VIFPVBQESA-N_conf_1

0 1
C 3.377763876941831 1.150612217434732 0.24099339811951773
C 2.4631301106157824 0.2935258354047426 -0.631390046421308
N 3.2574148535344514 -0.2409913208863204 -1.7439838290333496
C 1.818793527757695 -0.8691849544792826 0.1436368276024968
C 0.9313036650984976 -0.4607592156681389 1.3287846944409898
C -0.21841905894726893 0.49860410694705115 0.9842732935114327
N -1.09276699591678 0.04792662609274052 -0.11204571842700796
C -1.9678903525424234 1.1519026069039526 -0.5430375408469491
C -2.777061765506423 0.846768489233765 -1.7995095060325859
C -1.8092048000003143 -1.2050439226817535 0.1770412432901024
C -2.830005305633978 -1.1621545705209908 1.310529359140323
H 4.153614613825921 0.5471187977823171 0.7253448245206069
H 2.8111225953342 1.6652002248537139 1.0231671110835148
H 3.875726398676904 1.923817797233237 -0.3554082211455468
H 1.6863934904106845 0.9336195339357956 -1.0626784162865772
H 2.6499903431741436 -0.794710579233495 -2.3481283651583373
H 3.9600369711247088 -0.8864489695755821 -1.3857230940533374
H 2.605290017122681 -1.5326549937294862 0.5283801851700133
H 1.225334537185988 -1.4794967176297125 -0.5493630501432721
H 1.552510656984604 0.007891000670436984 2.101761370051466
H 0.5302524159195019 -1.369301773688041 1.7939408767773377
H 0.23514626567433738 1.4598936511284297 0.7111442558959552
H -0.801026466192876 0.6985493065357776 1.891905439917463
H -2.6427819695648718 1.4649993162426693 0.26244863529333434
H -1.3427252323896903 2.022270232389371 -0.7811210227135293
H -3.5554553043197745 0.10095552104383053 -1.6128974217811205
H -2.1318976844670288 0.48590839097794725 -2.607350176910755
H -3.275110931988725 1.7566720152269883 -2.1508962248785064
H -2.3115933117571243 -1.5530249225983184 -0.7331354295037096
H -1.0866620548756387 -2.0007100317838913 0.39124547966720646
H -3.6311768031954816 -0.44480109482261787 1.1106262180595858
H -3.295083999793703 -2.1473849354074943 1.4237089726295393
H -2.3649623022894755 -0.9095676673323418 2.2677358781649306


--Link1--
%nprocshared=5
%mem=10GB
%Oldchk=CAPCBAYULRXQAN-VIFPVBQESA-N_conf_1_0.chk
%Chk=CAPCBAYULRXQAN-VIFPVBQESA-N_conf_1_1.chk
# freq B3LYP/6-31G** SCRF=(Solvent=water) volume NMR pop=NPA density=current Geom=AllCheck Guess=Read


--Link1--
%nprocshared=5
%mem=10GB
%Oldchk=CAPCBAYULRXQAN-VIFPVBQESA-N_conf_1_1.chk
%Chk=CAPCBAYULRXQAN-VIFPVBQESA-N_conf_1_2.chk
# TD(NStates=10, Root=1) B3LYP/6-31G** SCRF=(Solvent=water) volume pop=NPA density=current Geom=AllCheck Guess=Read



