%nprocshared=4
%mem=8GB
%Chk=JTUXBPXZECVPKS-UHFFFAOYSA-N_conf_3_0.chk
# opt=CalcFc B3LYP/6-31G** SCRF=(Solvent=water) scf=xqc 

JTUXBPXZECVPKS-UHFFFAOYSA-N_conf_3

0 1
O -1.1048808553405947 -2.0033998233437034 -0.831341584503038
C -1.7292595228995256 -0.8652106569649012 -0.40356076360627174
C -2.8852024922191366 -0.413108371684096 -1.0428286936405724
C -3.557766506136988 0.719376065582697 -0.5688789948341357
N -4.645682696183676 1.2413875719367633 -1.2799437800998263
C -3.0037615772638926 1.4422587581244184 0.4931815915666788
C -1.8480800217763336 0.992485287452461 1.1361883723315653
C -1.2036272949461946 -0.1549438201228571 0.6769262846917843
O -0.08598996157484613 -0.5778808440887094 1.3534056822627756
C 1.1354674091968187 -0.42346148600220607 0.7325541080030917
C 2.1474385786222703 -1.2774289032718489 1.172298178357196
C 3.4327183232870206 -1.1872025605078673 0.6296268593600375
C 3.7373348803290285 -0.20916473053707033 -0.3193775590900192
N 4.990163164257197 -0.19692841667727445 -0.9435112225837305
C 2.708356655500727 0.6109658083427298 -0.7891397195644048
C 1.4192399788829122 0.5257199512355787 -0.2507133094179257
H -1.5432350939885529 -2.324366525708081 -1.6347505502115467
H -3.275353521332945 -0.9421834285106756 -1.9061168469917686
H -5.17716622136381 0.5460837195808419 -1.7942971501399745
H -5.243566746349808 1.848986458101702 -0.7277725579279296
H -3.4724850664476192 2.3615255310084406 0.8343662892386272
H -1.4402735043337587 1.5445789576893687 1.9778670257454583
H 1.9295082208098846 -2.030511390125786 1.9244878951970996
H 4.19365167789818 -1.88926162543851 0.9583725706940568
H 5.2301285545060825 0.6967377922054081 -1.3604296259286626
H 5.737741638420873 -0.5672602492376091 -0.3654555496066066
H 2.900397178934337 1.3308447275751818 -1.5799879827454937
H 0.6541848215117987 1.2013622033856428 -0.619826823446007


--Link1--
%nprocshared=4
%mem=8GB
%Oldchk=JTUXBPXZECVPKS-UHFFFAOYSA-N_conf_3_0.chk
%Chk=JTUXBPXZECVPKS-UHFFFAOYSA-N_conf_3_1.chk
# freq B3LYP/6-31G** SCRF=(Solvent=water) volume NMR pop=NPA density=current Geom=AllCheck Guess=Read


--Link1--
%nprocshared=4
%mem=8GB
%Oldchk=JTUXBPXZECVPKS-UHFFFAOYSA-N_conf_3_1.chk
%Chk=JTUXBPXZECVPKS-UHFFFAOYSA-N_conf_3_2.chk
# TD(NStates=10, Root=1) B3LYP/6-31G** SCRF=(Solvent=water) volume pop=NPA density=current Geom=AllCheck Guess=Read



