%nprocshared=9
%mem=18GB
%Chk=LIBPKBFUVQJULU-KPHUVODXSA-N_conf_2_0.chk
# opt=CalcFc B3LYP/6-31G** SCRF=(Solvent=water) scf=xqc 

LIBPKBFUVQJULU-KPHUVODXSA-N_conf_2

0 1
O -2.7688103641146142 0.4523912984422893 -2.231350762515397
C -2.985196166522525 1.1147944645891124 -0.9698494385765764
C -1.8223764091175292 0.8816216716980079 0.042203089084058024
N -0.7893447125498858 -0.02125866354555102 -0.48278875426098755
C -0.7490094653730991 -1.4189810395305662 -0.35719366100114686
C -1.7558639539680023 -2.209022571309827 0.19428655097752867
C -1.62270352969192 -3.605122140313563 0.24675998436079702
C -0.48232460019238327 -4.2330738397686885 -0.26239211465668777
C 0.5282921224956668 -3.4675112100406347 -0.8408566011552346
C 0.38565149455994074 -2.07856674208324 -0.9197333688519568
N 1.4189517289895295 -1.304955662936346 -1.5351740264882963
C 2.4278464682061007 -0.8708873757450827 -0.5628038456870179
C 3.8005452581322103 -0.9933209599370364 -1.250885634450218
C 4.896790711613538 -0.5054622513516176 -0.2967081058348061
C 4.454553200465178 0.674923913442103 0.5929324635090288
C 3.1558778873918336 1.3626578384651273 0.12831490293987716
C 3.3603260045558083 2.4388642921882338 -0.9623306465628174
O 4.440291729390189 2.1966026391450653 -1.8442063395469126
O 2.0836385361041985 0.48157701468288444 -0.25189191572501785
O 4.196420844021934 0.12081756714843378 1.908337603357411
O 6.106989331756747 -0.24479897056958874 -0.9965688196837358
O 3.7774700501500806 -0.2481439850232686 -2.486786294265485
O -2.2300131309379454 0.5280732717649511 1.3586207790894238
C -3.269859299949837 1.372045158451596 1.8210426986910533
C -3.459452746062259 1.146215597946864 3.3322039325735338
O -4.487864825595496 1.9667256868578948 3.8956167383471065
C -4.5754274590684485 1.1240456256853721 1.059303350776239
O -5.3667958596795176 2.3137962033815005 1.141032347906182
C -4.35453866863288 0.7282482239195273 -0.41154821694372534
O -4.570957419416452 -0.6725392198250655 -0.5489104355066896
H -2.121120201121904 -0.26411572324778454 -2.0068959918906457
H -3.013354871846959 2.185018174930477 -1.1993356668734976
H -1.3169590851557798 1.852079970465468 0.1439481968196578
H 0.13484175578717156 0.32370017015016195 -0.1697908637298886
H -2.651702913410962 -1.7642644352276036 0.61130555851472
H -2.4139989384018063 -4.201855030415339 0.6980532099632667
H -0.39015181678106625 -5.32038317791958 -0.22137766448929713
H 1.407667891730176 -3.947443300711951 -1.263290241423941
H 0.9527385618848595 -0.4531991965365524 -1.8621848059710513
H 2.421591330602185 -1.4804120478537175 0.3570394117147448
H 4.0074292192181105 -2.035353509199437 -1.5263657576620846
H 5.126994989208818 -1.3536601417741172 0.3556457261003915
H 5.25363001380688 1.4232244693110447 0.7158897729311352
H 2.725650912257114 1.895842206735005 0.9893898442001242
H 2.4531501647667597 2.5765297331661077 -1.5622443903728345
H 3.574048838436374 3.397998314124895 -0.4767284972481301
H 4.298162430643194 1.3284407835205851 -2.2814907510345317
H 5.038550133920612 0.11664505443559103 2.404046238046937
H 6.754361765953975 0.14928133379178918 -0.3831224594554695
H 2.9995539345907485 -0.6148953079268771 -2.958932090645565
H -2.973847600488239 2.4167899153008587 1.6912638975411036
H -3.6937978838436933 0.09500642459852482 3.5393559617079218
H -2.5209967987478197 1.3633752610511725 3.8659320781078055
H -4.823415961417673 2.5675013661208275 3.19752444321688
H -5.143553829478806 0.33064982753347794 1.5625119899651487
H -6.253424159304245 2.0700186330359447 0.80033613686011
H -5.11500925182909 1.2000716335570187 -1.0308657669457715
H -4.460145387936558 -0.8863472368436283 -1.4955801534634463


--Link1--
%nprocshared=9
%mem=18GB
%Oldchk=LIBPKBFUVQJULU-KPHUVODXSA-N_conf_2_0.chk
%Chk=LIBPKBFUVQJULU-KPHUVODXSA-N_conf_2_1.chk
# freq B3LYP/6-31G** SCRF=(Solvent=water) volume NMR pop=NPA density=current Geom=AllCheck Guess=Read


--Link1--
%nprocshared=9
%mem=18GB
%Oldchk=LIBPKBFUVQJULU-KPHUVODXSA-N_conf_2_1.chk
%Chk=LIBPKBFUVQJULU-KPHUVODXSA-N_conf_2_2.chk
# TD(NStates=10, Root=1) B3LYP/6-31G** SCRF=(Solvent=water) volume pop=NPA density=current Geom=AllCheck Guess=Read



