%nprocshared=9
%mem=18GB
%Chk=LIBPKBFUVQJULU-KPHUVODXSA-N_conf_1_0.chk
# opt=CalcFc B3LYP/6-31G** SCRF=(Solvent=water) scf=xqc 

LIBPKBFUVQJULU-KPHUVODXSA-N_conf_1

0 1
O 3.549003104917809 1.4207947279750035 -2.712519042187516
C 3.1756212680702034 0.18371112365020315 -2.089956272558826
C 1.9109494405611671 0.33217998193126513 -1.2040838076647924
N 2.05923929313868 1.481616084833763 -0.29864964513978953
C 0.9667633795924893 2.3976620548766627 -0.38079648545490513
C 1.2035005118999305 3.638525571240649 -0.9861229964822915
C 0.18305337259643145 4.5790077987871864 -1.102515170538713
C -1.0799714937301104 4.291564831405735 -0.5981857437012579
C -1.3290778010462214 3.0541602037508215 0.0037715444041814643
C -0.3352513044782463 2.067923386410986 0.08490034594968517
N -0.5706442691571735 0.8167894930559796 0.7217526862284661
C -1.8495518551562782 0.1568104557378906 0.3699843133655009
C -1.7234502239707015 -1.3556814010541465 0.68074218195495
C -3.0045584582444818 -2.082380885844645 0.2239453936847783
C -4.23324845239592 -1.159122355238265 0.2075411426332127
C -4.120883318023252 -0.0034664558967342184 1.2197206533019658
C -4.416719787160167 -0.46477975047167847 2.6529287212468597
O -5.7679781425532 -0.9121961416185186 2.750756427001144
O -2.8807919991553588 0.7152862788584591 1.1880474980951554
O -4.329946581567328 -0.605022574822585 -1.1208383943944784
O -3.2471677182057723 -3.2661204709295375 0.9861247453994579
O -1.4621720753718355 -1.5289681595423983 2.090386418665195
O 1.5859347589369013 -0.7961842956987807 -0.3887557463633238
C 2.661910801792188 -1.7057546681982552 -0.09346957794438276
C 2.3140875720422684 -2.476870881572618 1.1949009924545826
O 3.251271989818443 -3.516847715992122 1.4655349288534014
C 4.013388046375376 -0.9791247941498573 0.022235367839139725
O 5.067638955403768 -1.8357680199002904 0.46189858367474923
C 4.381862743346432 -0.4017481388773338 -1.3464996916137613
O 5.443905551057417 0.5549192288823834 -1.1698669757208353
H 3.3945619754554173 2.0948293392961816 -2.015345548238896
H 2.9191685649993664 -0.519075046309255 -2.8949708749958614
H 1.060137146953111 0.4930152654531858 -1.8829493993575417
H 2.0070888432825664 1.1212931775436399 0.658671377014993
H 2.193575020476645 3.8914539036050977 -1.353264527255812
H 0.3784013964893151 5.541319730455362 -1.5687695029918538
H -1.8731300356744254 5.032057317634406 -0.6539184511999148
H -2.3179126143567825 2.8825723927318547 0.4235359612032952
H 0.20042027029434825 0.1886410433777459 0.4951745788609658
H -2.065842997481548 0.3140688737305639 -0.6973215208217294
H -0.8661695403901327 -1.7943639368107431 0.15918817627527718
H -2.8255372137649766 -2.419630062596918 -0.8061302945086395
H -5.151572469922669 -1.7349464540129165 0.3670257264722213
H -4.8861261627486074 0.7374901589718778 0.9563769531596326
H -3.758910423898952 -1.282195571811192 2.9673407764267736
H -4.2738226461737 0.3649355195877693 3.3518569655020904
H -5.904457017198226 -1.1690002797361883 3.684862645892466
H -5.144019348808015 -0.07039253763365948 -1.1518117608556284
H -4.004209208962861 -3.7252247807713093 0.5863105015922451
H -1.0438846101493289 -0.6913627487819723 2.3873868047082043
H 2.7196764200971657 -2.4408527976365555 -0.9073935580431812
H 1.3148494194126623 -2.9276380794890215 1.1089349260787498
H 2.2785479794232764 -1.798502554017479 2.0559209692950633
H 4.1464153448709276 -3.11586110656816 1.3757901821608465
H 3.9518165757957373 -0.17442888540291382 0.7635356947790126
H 5.886171866959795 -1.308415743585997 0.33828261473747545
H 4.816196351781002 -1.1924268862899545 -1.9704998907608517
H 5.431849803905481 1.1017262374758805 -1.9798633980109046


--Link1--
%nprocshared=9
%mem=18GB
%Oldchk=LIBPKBFUVQJULU-KPHUVODXSA-N_conf_1_0.chk
%Chk=LIBPKBFUVQJULU-KPHUVODXSA-N_conf_1_1.chk
# freq B3LYP/6-31G** SCRF=(Solvent=water) volume NMR pop=NPA density=current Geom=AllCheck Guess=Read


--Link1--
%nprocshared=9
%mem=18GB
%Oldchk=LIBPKBFUVQJULU-KPHUVODXSA-N_conf_1_1.chk
%Chk=LIBPKBFUVQJULU-KPHUVODXSA-N_conf_1_2.chk
# TD(NStates=10, Root=1) B3LYP/6-31G** SCRF=(Solvent=water) volume pop=NPA density=current Geom=AllCheck Guess=Read



