%nprocshared=7
%mem=14GB
%Chk=KIFDSGGWDIVQGN-UHFFFAOYSA-N_conf_0_0.chk
# opt=CalcFc B3LYP/6-31G** SCRF=(Solvent=water) scf=xqc 

KIFDSGGWDIVQGN-UHFFFAOYSA-N_conf_0

0 1
N -4.292349797227823 3.6042824710742014 -1.1043066827628767
C -3.3196018490584653 2.6578081589454134 -0.7633044614453817
C -2.279226846021766 2.9949573910393874 0.09959371944815876
C -1.238423765518359 2.0939231121295214 0.35346727743449446
C -3.250850123848265 1.4415227521210443 -1.4402217935760075
C -2.2115766991045445 0.535664762929945 -1.1914059340973924
C -1.1702661584807976 0.8463383293076682 -0.2986486530584187
C -0.023243086219389742 -0.15692462678725874 0.022031757909238888
C 1.3713612979407896 0.5111625469336959 0.2058217153764802
C 2.299816328324743 0.06007526695755917 1.1609918606250467
C 3.5615074744879656 0.6557866310285368 1.2868408231180473
C 3.96166377749818 1.6767183723216423 0.42668529384339615
N 5.1735307514861475 2.344635470311008 0.6354923093947725
C 3.0424377743663484 2.157282966760581 -0.5032194553362458
C 1.7805526425303215 1.5657592270918654 -0.6348653104080157
C 0.12965025273102607 -1.2844304520404377 -1.0416444992449643
C -0.18208937903335998 -2.5432761362798098 -0.4834560683032961
C -0.1129520581763789 -3.6938790776512307 -1.2548333242941585
C 0.27262004861789196 -3.582074163599014 -2.5938171325143373
C 0.5843206428568474 -2.3320400102259686 -3.148867341818199
C 0.5155175091494368 -1.1723844141441313 -2.3749188970068773
C -0.5465272632470389 -2.375585718558556 0.904723379271092
C -0.46925472561264236 -1.0081860698098355 1.247789428455494
C -0.7749481586355759 -0.5789098425837005 2.5367202006602043
C -1.1565460820928706 -1.5308890809572206 3.4836357881764264
C -1.2312351162882373 -2.889458162770397 3.1422659397947297
C -0.9258874471562488 -3.319330855450784 1.8476547177650269
H -5.150089013062455 3.1950065203558204 -1.460871418535782
H -4.466382548672943 4.289603744733107 -0.37612982071798867
H -2.2685712628615256 3.963185761700189 0.5927633308367
H -0.46797931643285684 2.388796652597351 1.0639809472350643
H -4.014643873909749 1.175835522854822 -2.1662646956632767
H -2.238359085953555 -0.41805330046671263 -1.713729748552727
H 2.063093408872393 -0.7650483105590317 1.8290135893195245
H 4.233312627052885 0.30055447550441117 2.0637557325737914
H 5.885212989449859 1.7679115322522956 1.0728253140384303
H 5.520350531492143 2.8257024083949394 -0.1882075262712131
H 3.29946683994108 2.9961024072848597 -1.1444008835623358
H 1.1111558317486294 1.9529368047850013 -1.4012607719633685
H -0.350088261644696 -4.666612432055281 -0.8372721762456242
H 0.3336784336917441 -4.474125226414386 -3.212802552891192
H 0.884006247288232 -2.266563134137885 -4.192239436720893
H 0.7557295827659564 -0.20873090500946814 -2.8119965639669866
H -0.7170664054086522 0.4698521008314452 2.8089554325635833
H -1.3999826790597025 -1.2165781528944075 4.495896941280762
H -1.531993450343818 -3.6156494633496106 3.893806235229274
H -0.9888505392212813 -4.3726758545013515 1.5960612108190044


--Link1--
%nprocshared=7
%mem=14GB
%Oldchk=KIFDSGGWDIVQGN-UHFFFAOYSA-N_conf_0_0.chk
%Chk=KIFDSGGWDIVQGN-UHFFFAOYSA-N_conf_0_1.chk
# freq B3LYP/6-31G** SCRF=(Solvent=water) volume NMR pop=NPA density=current Geom=AllCheck Guess=Read


--Link1--
%nprocshared=7
%mem=14GB
%Oldchk=KIFDSGGWDIVQGN-UHFFFAOYSA-N_conf_0_1.chk
%Chk=KIFDSGGWDIVQGN-UHFFFAOYSA-N_conf_0_2.chk
# TD(NStates=10, Root=1) B3LYP/6-31G** SCRF=(Solvent=water) volume pop=NPA density=current Geom=AllCheck Guess=Read



