%nprocshared=7
%mem=14GB
%Chk=KIFDSGGWDIVQGN-UHFFFAOYSA-N_conf_2_0.chk
# opt=CalcFc B3LYP/6-31G** SCRF=(Solvent=water) scf=xqc 

KIFDSGGWDIVQGN-UHFFFAOYSA-N_conf_2

0 1
N -4.432302768272653 -3.4321497672441046 1.0021474365678884
C -3.4196294678136065 -2.531572524178165 0.6531622322746057
C -2.3381161910847448 -2.9505640708066756 -0.11846978525704072
C -1.263705868216476 -2.090158673960892 -0.37328509293658607
C -3.363065186589733 -1.270282666372567 1.243283708494751
C -2.2903697453192504 -0.4046691234211279 0.9930610446357161
C -1.2055502516896799 -0.7994757010110963 0.18984905579122527
C -0.018831768596158618 0.15596820280650744 -0.13242433859176736
C 1.3684671531924235 -0.5496733902153603 -0.18253696569891373
C 2.361825382076503 -0.18755139280457145 -1.1098806229558684
C 3.6147205887891967 -0.8142858496626124 -1.115583073088495
C 3.9398178001216917 -1.7763174860697208 -0.16106514909321304
N 5.146244972376206 -2.480213197056394 -0.2471318048169382
C 2.956477513579268 -2.1698825899460537 0.7438042161403308
C 1.7029441452963354 -1.5469049741075291 0.7555626642071614
C -0.3719409873840528 0.9229108337023595 -1.441306026339135
C -0.4378932714735371 2.3130440544168507 -1.2033357715424613
C -0.7390733212600735 3.1917683982912677 -2.2333000863988994
C -0.9771774704634842 2.673586736727227 -3.5095580947040412
C -0.9136969589825842 1.292431457188053 -3.746636440884445
C -0.6107185461788738 0.405747893631928 -2.7119743056944996
C -0.15237697283854837 2.5755832129630765 0.18861645830603568
C 0.09680553692138974 1.3556243800733918 0.8542425788926088
C 0.4005012143463314 1.3347958371636315 2.2130681851603446
C 0.4500696601550652 2.5467578350622575 2.903879542796874
C 0.2005440833775428 3.758160270115288 2.2420163993909767
C -0.10252810852188315 3.7783249531495415 0.8775438751494121
H -5.299979376693367 -2.9818743240916588 1.2755488056464255
H -4.578712843136515 -4.165816632341818 0.3162214063481092
H -2.320590508131947 -3.9524718218746644 -0.5387919422087389
H -0.45961744458640863 -2.4507671835698446 -1.0126256087706946
H -4.162117698261746 -0.9377549896563867 1.90058843565926
H -2.3260502037954316 0.5852167828490387 1.4424732732850865
H 2.1839917941661593 0.5903579815989998 -1.8490361687438546
H 4.33922108866172 -0.5298281280333568 -1.8740657135044134
H 5.895567084958749 -1.9505762828798054 -0.6811431303953608
H 5.432672102920885 -2.9056093973363377 0.6287656375350135
H 3.155850317946951 -2.9638148693666237 1.458453771260824
H 0.9807281530924188 -1.864045918984541 1.5060217144667551
H -0.7925717464924404 4.261755930780313 -2.0628089456040524
H -1.2162288362663023 3.3479968397630846 -4.328488936784145
H -1.104043458708929 0.9090971993171829 -4.746410481539109
H -0.5609694197199723 -0.6610932158708578 -2.9036492994712377
H 0.5922159691922664 0.4016000718542203 2.7324515968587546
H 0.6859510462708829 2.552637806495888 3.96550829983308
H 0.24538864788112702 4.692032954786505 2.7974411843598848
H -0.29214583484242795 4.721954538126565 0.37713025372855574


--Link1--
%nprocshared=7
%mem=14GB
%Oldchk=KIFDSGGWDIVQGN-UHFFFAOYSA-N_conf_2_0.chk
%Chk=KIFDSGGWDIVQGN-UHFFFAOYSA-N_conf_2_1.chk
# freq B3LYP/6-31G** SCRF=(Solvent=water) volume NMR pop=NPA density=current Geom=AllCheck Guess=Read


--Link1--
%nprocshared=7
%mem=14GB
%Oldchk=KIFDSGGWDIVQGN-UHFFFAOYSA-N_conf_2_1.chk
%Chk=KIFDSGGWDIVQGN-UHFFFAOYSA-N_conf_2_2.chk
# TD(NStates=10, Root=1) B3LYP/6-31G** SCRF=(Solvent=water) volume pop=NPA density=current Geom=AllCheck Guess=Read



