%nprocshared=5
%mem=10GB
%Chk=RNLHGQLZWXBQNY-SCZZXKLOSA-N_conf_2_0.chk
# opt=CalcFc B3LYP/6-31G** SCRF=(Solvent=water) scf=xqc 

RNLHGQLZWXBQNY-SCZZXKLOSA-N_conf_2

0 1
N 0.4870504057724234 3.194166552953889 0.2614325483786444
C 0.44462298550447177 1.7430457717861145 0.46986386831772226
C -0.9830271774956029 1.2223054313040125 0.2577074387877241
C -1.1065502842353998 -0.3143680459455909 0.40585374810268476
C -2.5348131333350903 -0.7779285746219319 -0.033471670046876054
N -2.903664635471053 -0.4448196197007965 -1.4073510243740897
C -0.02216883197532973 -1.0280092119018345 -0.4510174826018627
C 1.4270717302153426 -0.4744421377132827 -0.3856413508936259
C 2.212103986254366 -1.048680026642062 -1.58926826594172
C 1.4233276176493999 1.0660726995473981 -0.4966971610121207
C 2.1752496759617235 -0.930634190868262 0.8805194942830497
C -0.9900011155259382 -0.711907903593515 1.8953681965411526
H 0.191842878901095 3.408940205924858 -0.6912388250690387
H -0.19805914239649727 3.642853205909353 0.8687509221073657
H 0.7599160535309587 1.562626476592717 1.5016643444190532
H -1.3123787954710535 1.5220619053274898 -0.7463125725875214
H -1.6666885404075638 1.7157543391478955 0.9617796356845935
H -2.6275123911914826 -1.863355508535648 0.09649262976214455
H -3.282072740657376 -0.31690973346110046 0.6242962829252151
H -2.3457540076315526 -0.9925547529489476 -2.0603844088517693
H -3.8703315706653805 -0.7257091020932375 -1.5710366017852329
H -0.3284633876648831 -0.9618215143444966 -1.502581956696081
H -0.01900676770114723 -2.101923727806109 -0.22000121149914065
H 3.244084973659185 -0.679681644639701 -1.603312428916743
H 2.247300976122767 -2.1434269621786304 -1.550526120056548
H 1.749907165185779 -0.7641820704966682 -2.541424001063676
H 1.157522133390124 1.348431826016229 -1.5257708756916475
H 2.43811232048037 1.4519204061377466 -0.32883137027558035
H 1.8354933116331613 -0.4278807633851715 1.7857291710131042
H 3.247293338290703 -0.7138106553700915 0.7988355351459933
H 2.0713302674639875 -2.010579606089548 1.0332325747527678
H -0.9580661087749813 -1.8011018496645332 2.011004934595662
H -1.8529008441104708 -0.3472806223623517 2.465808609251891
H -0.11077034530516783 -0.2971705962844122 2.386527393294709


--Link1--
%nprocshared=5
%mem=10GB
%Oldchk=RNLHGQLZWXBQNY-SCZZXKLOSA-N_conf_2_0.chk
%Chk=RNLHGQLZWXBQNY-SCZZXKLOSA-N_conf_2_1.chk
# freq B3LYP/6-31G** SCRF=(Solvent=water) volume NMR pop=NPA density=current Geom=AllCheck Guess=Read


--Link1--
%nprocshared=5
%mem=10GB
%Oldchk=RNLHGQLZWXBQNY-SCZZXKLOSA-N_conf_2_1.chk
%Chk=RNLHGQLZWXBQNY-SCZZXKLOSA-N_conf_2_2.chk
# TD(NStates=10, Root=1) B3LYP/6-31G** SCRF=(Solvent=water) volume pop=NPA density=current Geom=AllCheck Guess=Read



