%nprocshared=5
%mem=10GB
%Chk=RNLHGQLZWXBQNY-SCZZXKLOSA-N_conf_1_0.chk
# opt=CalcFc B3LYP/6-31G** SCRF=(Solvent=water) scf=xqc 

RNLHGQLZWXBQNY-SCZZXKLOSA-N_conf_1

0 1
N -1.0888187570087338 -3.082940056033611 -0.6087346071347571
C -0.7069626049382255 -1.7937524209075562 -0.024997239439257857
C 0.7249208100582437 -1.453037022657807 -0.4516330603453419
C 1.2238683240790769 -0.08258275733077967 0.07290360913231911
C 2.5580557059241946 0.24007289143715638 -0.6747495862427002
N 3.178019031060504 1.4998853797911167 -0.27056595857147986
C 0.17282526052231043 1.0207030022519963 -0.2374922374960655
C -1.3171238020557505 0.6995884895231254 0.0517897487235331
C -1.6586525695086178 0.825956869647626 1.548104378960413
C -1.6841509338702154 -0.7030595334180976 -0.47717958853056314
C -2.1846897739666407 1.7438520598198637 -0.6891226510579826
C 1.5348161524274468 -0.17413053209284715 1.582057802305992
H -1.0884057225607997 -3.017727984944599 -1.626037827572031
H -2.0473879843711686 -3.306341609170837 -0.34255887588496525
H -0.7532368303627044 -1.9104057180279759 1.061689666083478
H 1.4085158436268979 -2.2459982910418623 -0.11833384038375003
H 0.7741013876046802 -1.452146461259649 -1.550323349417541
H 3.280751028794329 -0.5663952402016971 -0.4996189366355587
H 2.383743538702826 0.2728584550401683 -1.7572995803508669
H 4.045065896734042 1.6292891671484737 -0.7908266153603123
H 2.576223477731451 2.2803701611733604 -0.5280128875276444
H 0.444781037926642 1.9520594549073544 0.27694476425164055
H 0.2532127455394053 1.246977503351344 -1.3111148883615573
H -1.3147995791024945 1.7848322500261729 1.9517893705412497
H -1.2244739901584623 0.032220870617692986 2.1558280666468876
H -2.7427305793687418 0.7745987605651683 1.7058413013955485
H -2.7039566615892845 -0.963005980629645 -0.16247576885330603
H -1.7028982670935668 -0.6767856867251887 -1.5763260754816477
H -1.9633690574552667 2.7591520181484275 -0.34072310729919764
H -3.2529546701999505 1.5591306068786641 -0.5279247968782459
H -2.0064961367730905 1.717124703102521 -1.7701650764592591
H 0.7321994990232866 -0.6376330398969577 2.1562008180372647
H 1.7233304471996422 0.8145995583097737 2.0142244423016025
H 2.4266777334287544 -0.7873298674008794 1.7588425869041109


--Link1--
%nprocshared=5
%mem=10GB
%Oldchk=RNLHGQLZWXBQNY-SCZZXKLOSA-N_conf_1_0.chk
%Chk=RNLHGQLZWXBQNY-SCZZXKLOSA-N_conf_1_1.chk
# freq B3LYP/6-31G** SCRF=(Solvent=water) volume NMR pop=NPA density=current Geom=AllCheck Guess=Read


--Link1--
%nprocshared=5
%mem=10GB
%Oldchk=RNLHGQLZWXBQNY-SCZZXKLOSA-N_conf_1_1.chk
%Chk=RNLHGQLZWXBQNY-SCZZXKLOSA-N_conf_1_2.chk
# TD(NStates=10, Root=1) B3LYP/6-31G** SCRF=(Solvent=water) volume pop=NPA density=current Geom=AllCheck Guess=Read



