%nprocshared=5
%mem=10GB
%Chk=RNLHGQLZWXBQNY-SCZZXKLOSA-N_conf_3_0.chk
# opt=CalcFc B3LYP/6-31G** SCRF=(Solvent=water) scf=xqc 

RNLHGQLZWXBQNY-SCZZXKLOSA-N_conf_3

0 1
N 0.9894628350291218 3.1646266458770356 0.2747297537612438
C 0.7128487323746855 1.742648878444809 0.481241061753126
C -0.8046860623309857 1.506003898848511 0.4336719933310329
C -1.2267735154916108 0.021136591872571324 0.207076074988166
C -2.4057104201792106 -0.2866696580709603 1.18519198466723
N -2.9690825850941445 -1.630809218304222 1.0927263368614446
C -0.03996754881159042 -0.9396652881318291 0.48784026246835027
C 1.2965625903981683 -0.6217926255198798 -0.24141970879759228
C 2.4588892671993534 -1.0669745224782525 0.6770117133115218
C 1.4421012133591327 0.8858351439645558 -0.5529449457450824
C 1.424883673909298 -1.4312350440022847 -1.5464349913491808
C -1.7328590859524915 -0.14078608284356522 -1.2435591844866107
H 0.6960653399260249 3.44256124409568 -0.6614070060410456
H 1.995614388217263 3.325879321956753 0.31078660433477473
H 1.0755578107840567 1.485920795297605 1.4837886554212998
H -1.2243372272899584 1.886209589376762 1.3754459462099755
H -1.260104907455307 2.130044515745367 -0.34836387742295327
H -3.2190983903090746 0.43005938297929525 1.0170300514861605
H -2.0736858122697943 -0.13596411814875672 2.2197833725487097
H -2.250810009397337 -2.327454315152499 1.2797932750259193
H -3.304155230421193 -1.8071289947018705 0.14761178857904955
H 0.14019352688179756 -0.9165991317875783 1.5726233498651794
H -0.32834289864892197 -1.975802756710418 0.2686487061137565
H 2.466521121439099 -0.5037115376401592 1.616586661118044
H 3.4301990184390387 -0.9134310379487343 0.1929636492993484
H 2.377594104522228 -2.1310766484195733 0.9271359278739166
H 2.505595843440855 1.1572436954447383 -0.5920625550544654
H 1.0452910737482046 1.1121010290175388 -1.5513085392763677
H 2.3844006382416274 -1.2325121521349753 -2.037952804032681
H 0.6367974878705639 -1.1873076273369805 -2.2631650132683334
H 1.3706521930500657 -2.5083571261377307 -1.351485475153802
H -1.8820009577616554 -1.1938327666115658 -1.5048730111730197
H -1.037937151666846 0.28521643574481076 -1.9721120315379468
H -2.6896790557503163 0.3756234834157572 -1.3845980256793347


--Link1--
%nprocshared=5
%mem=10GB
%Oldchk=RNLHGQLZWXBQNY-SCZZXKLOSA-N_conf_3_0.chk
%Chk=RNLHGQLZWXBQNY-SCZZXKLOSA-N_conf_3_1.chk
# freq B3LYP/6-31G** SCRF=(Solvent=water) volume NMR pop=NPA density=current Geom=AllCheck Guess=Read


--Link1--
%nprocshared=5
%mem=10GB
%Oldchk=RNLHGQLZWXBQNY-SCZZXKLOSA-N_conf_3_1.chk
%Chk=RNLHGQLZWXBQNY-SCZZXKLOSA-N_conf_3_2.chk
# TD(NStates=10, Root=1) B3LYP/6-31G** SCRF=(Solvent=water) volume pop=NPA density=current Geom=AllCheck Guess=Read



