%nprocshared=2
%mem=4GB
%Chk=GLUUGHFHXGJENI-UHFFFAOYSA-N_conf_0_0.chk
# opt=CalcFc B3LYP/6-31G** SCRF=(Solvent=water) scf=xqc 

GLUUGHFHXGJENI-UHFFFAOYSA-N_conf_0

0 1
N -0.09263263258884369 1.3552458398761245 0.6022988773477788
C -1.2756762036688938 0.6371433666529632 0.09633082517114441
C -1.105784752153077 -0.8971320963156428 0.12241150345243935
N 0.09263177960747555 -1.3552502870421514 -0.602289951473547
C 1.2756733182466262 -0.6371384686792751 -0.09632738227158172
C 1.1057791466626963 0.8971305005403206 -0.1224138662381821
H 0.024937272592344507 1.1052469351701304 1.585140476684496
H -2.1428800676896076 0.9159271644236086 0.7050535881400016
H -1.4883907360832136 0.9708086847561428 -0.9268964927685783
H -1.9883260503471338 -1.3669430625144516 -0.32559404981366347
H -1.0544014527716934 -1.248406565761865 1.1604592933991906
H -0.024935402303074186 -1.1052557642883614 -1.5851360069978202
H 1.4884124165216328 -0.9707795111019443 0.9269057163043326
H 2.142868222617255 -0.9159174913644403 -0.705064447855609
H 1.9883173198802182 1.366941489882742 0.32559305066480765
H 1.054407821477297 1.2483792657661066 -1.1604711337452207


--Link1--
%nprocshared=2
%mem=4GB
%Oldchk=GLUUGHFHXGJENI-UHFFFAOYSA-N_conf_0_0.chk
%Chk=GLUUGHFHXGJENI-UHFFFAOYSA-N_conf_0_1.chk
# freq B3LYP/6-31G** SCRF=(Solvent=water) volume NMR pop=NPA density=current Geom=AllCheck Guess=Read


--Link1--
%nprocshared=2
%mem=4GB
%Oldchk=GLUUGHFHXGJENI-UHFFFAOYSA-N_conf_0_1.chk
%Chk=GLUUGHFHXGJENI-UHFFFAOYSA-N_conf_0_2.chk
# TD(NStates=10, Root=1) B3LYP/6-31G** SCRF=(Solvent=water) volume pop=NPA density=current Geom=AllCheck Guess=Read



