%nprocshared=4
%mem=8GB
%Chk=IBOFVQJTBBUKMU-UHFFFAOYSA-N_conf_1_0.chk
# opt=CalcFc B3LYP/6-31G** SCRF=(Solvent=water) scf=xqc 

IBOFVQJTBBUKMU-UHFFFAOYSA-N_conf_1

0 1
N 4.773838811480585 1.515609577195383 -0.10733637218246057
C 3.5606500945820456 0.828920227051995 0.08497821767468065
C 3.323223715318073 -0.346130590455938 -0.6350325985903581
C 2.1862572530785234 -1.1235945458420487 -0.38871828207428605
C 1.2782779563021405 -0.7626070432244347 0.6147471049173613
C 0.04486695383568414 -1.5955766415301842 0.8761704928509364
C -1.2299885643939694 -0.9548375445022783 0.3784949278004129
C -2.1437376401439754 -0.38789298856302334 1.275886822294632
C -3.319454720499584 0.212667024451675 0.8123889673482938
C -3.592319826381818 0.29735212583195103 -0.5565178806560548
N -4.83889286979871 0.7979827081870763 -0.975779148464576
C -2.696893051148931 -0.31622468630212863 -1.4494950144340348
Cl -3.0087067293094205 -0.31326939111132635 -3.1518164823809136
C -1.5204689644839586 -0.9176585606659763 -0.9920827012433091
C 1.535364702510788 0.38705560259115657 1.3739758682814185
C 2.6731447821021366 1.160098211338621 1.1234055153074918
Cl 2.9454719470102235 2.560790729552706 2.102706008018593
H 5.129957746997972 1.4720756175189076 -1.0562781433216721
H 4.7448693414225875 2.464491550652986 0.2611207514391861
H 4.027550036948549 -0.6700251770449572 -1.3973269689183532
H 2.0242842060623913 -2.0213684883447742 -0.9819673268704039
H -0.023803775517126483 -1.795613480539555 1.9537079375688837
H 0.1469943530881626 -2.5852270426574004 0.4114335727012367
H -1.955642144580509 -0.4183382200752325 2.3472710963513927
H -4.0259426206256395 0.613914829298282 1.5348522748284952
H -5.214341372814134 1.5290486803907222 -0.38097727059649633
H -4.843676559412846 1.0494825664131382 -1.9625431965055955
H -0.8313757722974618 -1.3615539443638276 -1.7064678321104678
H 0.8504927106670306 0.680428894748262 2.1658856532429556


--Link1--
%nprocshared=4
%mem=8GB
%Oldchk=IBOFVQJTBBUKMU-UHFFFAOYSA-N_conf_1_0.chk
%Chk=IBOFVQJTBBUKMU-UHFFFAOYSA-N_conf_1_1.chk
# freq B3LYP/6-31G** SCRF=(Solvent=water) volume NMR pop=NPA density=current Geom=AllCheck Guess=Read


--Link1--
%nprocshared=4
%mem=8GB
%Oldchk=IBOFVQJTBBUKMU-UHFFFAOYSA-N_conf_1_1.chk
%Chk=IBOFVQJTBBUKMU-UHFFFAOYSA-N_conf_1_2.chk
# TD(NStates=10, Root=1) B3LYP/6-31G** SCRF=(Solvent=water) volume pop=NPA density=current Geom=AllCheck Guess=Read



