%nprocshared=4
%mem=8GB
%Chk=IBOFVQJTBBUKMU-UHFFFAOYSA-N_conf_2_0.chk
# opt=CalcFc B3LYP/6-31G** SCRF=(Solvent=water) scf=xqc 

IBOFVQJTBBUKMU-UHFFFAOYSA-N_conf_2

0 1
N -4.79435876366006 1.5074148088271973 0.10166874010478195
C -3.5886746800429385 0.7848224974962322 0.031872958301469446
C -2.8421047327155704 0.5940533790305079 1.1984961547694997
C -1.7018087658728025 -0.21646831628867957 1.1975688442707189
C -1.302252758214454 -0.8878216660499243 0.03442157369146898
C -0.0671584774492597 -1.7588449108215796 0.032779277815261194
C 1.2252542947376324 -0.9802211799031975 0.12222593727117652
C 1.9894907776098993 -0.9957942820061809 1.295947045377908
C 3.181295994353321 -0.26761719076523843 1.3809594328083137
C 3.6571015697063114 0.4629894283958583 0.28768087419265254
N 4.792078757141467 1.278264262110524 0.4518344101852731
C 2.860425683923632 0.5182298136887712 -0.8690961450530461
Cl 3.351763237403849 1.4634999243283169 -2.2329331880553847
C 1.6697229787653118 -0.20907888353008186 -0.9605559748760455
C -2.0743807091898763 -0.741919687256808 -1.1254229575180694
C -3.2138406442983816 0.0691652993452731 -1.1183767175187977
Cl -4.1359339218931845 0.200096050228325 -2.5771774208994427
H -5.123290862593149 1.8014497496054163 -0.8161059916418442
H -4.784631728153909 2.264455694225471 0.7771122696850649
H -3.1436277425863546 1.0771624225423584 2.1245520652425713
H -1.1311360405257571 -0.3249043007058967 2.1177784609216634
H -0.1419058482603955 -2.472825089798714 0.8636525872178646
H -0.037516952386599675 -2.3790080041524666 -0.8729061760966929
H 1.6569912393855233 -1.5635963367685948 2.1626410676048637
H 3.7354302154412884 -0.2716866452042138 2.3163455743211006
H 5.19516438308381 1.567083274496026 -0.43758320745370344
H 5.4818078302132145 0.908293691346005 1.0970303818539484
H 1.081218175719098 -0.16296642603979225 -1.8738649965771308
H -1.795122509642018 -1.264227376375024 -2.037301877283766


--Link1--
%nprocshared=4
%mem=8GB
%Oldchk=IBOFVQJTBBUKMU-UHFFFAOYSA-N_conf_2_0.chk
%Chk=IBOFVQJTBBUKMU-UHFFFAOYSA-N_conf_2_1.chk
# freq B3LYP/6-31G** SCRF=(Solvent=water) volume NMR pop=NPA density=current Geom=AllCheck Guess=Read


--Link1--
%nprocshared=4
%mem=8GB
%Oldchk=IBOFVQJTBBUKMU-UHFFFAOYSA-N_conf_2_1.chk
%Chk=IBOFVQJTBBUKMU-UHFFFAOYSA-N_conf_2_2.chk
# TD(NStates=10, Root=1) B3LYP/6-31G** SCRF=(Solvent=water) volume pop=NPA density=current Geom=AllCheck Guess=Read



